REMARK  Name = 126941
REMARK  12 active torsions:
REMARK  status: ('A' for Active; 'I' for Inactive)
REMARK    1  A    between atoms: O_1  and  C_23
REMARK    2  A    between atoms: OE1_4  and  CD_28
REMARK    3  A    between atoms: N_6  and  C_16
REMARK    4  A    between atoms: N_6  and  C_18
REMARK    5  A    between atoms: N_6  and  C_27
REMARK    6  A    between atoms: N_7  and  CA_14
REMARK    7  A    between atoms: CA_14  and  CB_15
REMARK    8  A    between atoms: CA_14  and  C_23
REMARK    9  A    between atoms: CB_15  and  CG_17
REMARK   10  A    between atoms: CG_17  and  CD_28
REMARK   11  A    between atoms: C_18  and  C_26
REMARK   12  A    between atoms: C_19  and  C_20
REMARK                            x       y       z     vdW  Elec       q    Type
REMARK                         _______ _______ _______ _____ _____    ______ ____
ROOT
ATOM      1  C   UNL     1      -0.832   2.678   0.435  0.00  0.00    +0.030 A 
ATOM      2  C   UNL     1       1.882   2.034   0.475  0.00  0.00    +0.037 A 
ATOM      3  C   UNL     1      -0.223   2.154  -0.706  0.00  0.00    +0.024 A 
ATOM      4  C   UNL     1      -0.084   2.879   1.595  0.00  0.00    +0.024 A 
ATOM      5  C   UNL     1       1.135   1.832  -0.686  0.00  0.00    +0.015 A 
ATOM      6  C   UNL     1       1.272   2.557   1.615  0.00  0.00    +0.015 A 
ENDROOT
BRANCH   2   9
ATOM      7  O   UNL     1       4.071   2.275   1.280  0.00  0.00    -0.270 OA
ATOM      8  N   UNL     1       3.729   0.693  -0.382  0.00  0.00    -0.298 N 
ATOM      9  C   ACE A   0       3.328   1.691   0.496  0.00  0.00    +0.245 C 
ATOM     10  H   UNL     1       3.043   0.198  -0.942  0.00  0.00    +0.150 HD
BRANCH   8  11
ATOM     11  CA  UNL     1       5.092   0.233  -0.461  0.00  0.00    +0.182 C 
BRANCH  11  13
ATOM     12  OXT UNL     1       4.545  -0.127  -2.807  0.00  0.00    -0.249 OA
ATOM     13  C   UNL     1       5.377  -0.109  -1.909  0.00  0.00    +0.325 C 
BRANCH  13  14
ATOM     14  O   UNL     1       6.695  -0.364  -2.120  0.00  0.00    -0.479 OA
ATOM     15  H   UNL     1       6.881  -0.570  -3.061  0.00  0.00    +0.295 HD
ENDBRANCH  13  14
ENDBRANCH  11  13
BRANCH  11  16
ATOM     16  CB  UNL     1       5.389  -0.912   0.515  0.00  0.00    +0.045 C 
BRANCH  16  17
ATOM     17  CG  UNL     1       4.591  -2.203   0.293  0.00  0.00    +0.123 C 
BRANCH  17  19
ATOM     18  OE2 UNL     1       5.713  -3.208   2.208  0.00  0.00    -0.251 OA
ATOM     19  CD  UNL     1       4.911  -3.297   1.290  0.00  0.00    +0.305 C 
BRANCH  19  20
ATOM     20  OE1 UNL     1       4.220  -4.435   1.021  0.00  0.00    -0.481 OA
ATOM     21  HE1 UNL     1       4.437  -5.153   1.653  0.00  0.00    +0.295 HD
ENDBRANCH  19  20
ENDBRANCH  17  19
ENDBRANCH  16  17
ENDBRANCH  11  16
ENDBRANCH   8  11
ENDBRANCH   2   9
BRANCH   1  22
ATOM     22  N   UNL     1      -2.204   3.004   0.414  0.00  0.00    -0.327 N 
ATOM     23  C   UNL     1      -2.846   3.550   1.593  0.00  0.00    +0.129 C 
BRANCH  22  24
ATOM     24  C   UNL     1      -2.986   2.812  -0.791  0.00  0.00    +0.161 C 
BRANCH  24  31
ATOM     25  N   UNL     1      -3.902   0.769   0.176  0.00  0.00    -0.242 NA
ATOM     26  N   UNL     1      -3.694  -0.574  -2.235  0.00  0.00    -0.232 NA
ATOM     27  N   UNL     1      -4.569  -2.485  -1.263  0.00  0.00    -0.193 NA
ATOM     28  N   UNL     1      -5.194  -2.515   1.052  0.00  0.00    -0.198 NA
ATOM     29  N   UNL     1      -4.915  -0.569   2.363  0.00  0.00    -0.341 N 
ATOM     30  N   UNL     1      -5.455  -4.423  -0.280  0.00  0.00    -0.327 N 
ATOM     31  C   UNL     1      -3.415   1.376  -0.917  0.00  0.00    +0.077 A 
ATOM     32  C   UNL     1      -3.313   0.712  -2.109  0.00  0.00    +0.138 A 
ATOM     33  C   UNL     1      -4.283  -0.516   0.048  0.00  0.00    +0.148 A 
ATOM     34  C   UNL     1      -4.183  -1.207  -1.162  0.00  0.00    +0.185 A 
ATOM     35  C   UNL     1      -4.796  -1.231   1.113  0.00  0.00    +0.149 A 
ATOM     36  C   UNL     1      -5.054  -3.075  -0.155  0.00  0.00    +0.216 A 
ATOM     37  H   UNL     1      -5.284  -1.108   3.136  0.00  0.00    +0.144 HD
ATOM     38  H   UNL     1      -4.277   0.191   2.565  0.00  0.00    +0.144 HD
ATOM     39  H   UNL     1      -5.825  -4.908   0.525  0.00  0.00    +0.145 HD
ATOM     40  H   UNL     1      -5.366  -4.887  -1.173  0.00  0.00    +0.145 HD
ENDBRANCH  24  31
ENDBRANCH  22  24
ENDBRANCH   1  22
TORSDOF 11
