REMARK  Name = 5578
REMARK  8 active torsions:
REMARK  status: ('A' for Active; 'I' for Inactive)
REMARK    1  A    between atoms: O_1  and  C_13
REMARK    2  A    between atoms: O_1  and  C_19
REMARK    3  A    between atoms: O_2  and  C_14
REMARK    4  A    between atoms: O_2  and  C_20
REMARK    5  A    between atoms: O_3  and  C_15
REMARK    6  A    between atoms: O_3  and  C_21
REMARK    7  A    between atoms: C_8  and  C_9
REMARK    8  A    between atoms: C_8  and  C_10
REMARK                            x       y       z     vdW  Elec       q    Type
REMARK                         _______ _______ _______ _____ _____    ______ ____
ROOT
ATOM      1  C   UNL     1       1.083  -0.331   1.755  0.00  0.00    +0.075 C 
ENDROOT
BRANCH   1   6
ATOM      2  N   UNL     1       3.840  -0.905  -0.765  0.00  0.00    -0.200 NA
ATOM      3  N   UNL     1       3.822   1.419  -0.127  0.00  0.00    -0.223 NA
ATOM      4  N   UNL     1       2.272  -2.415   0.177  0.00  0.00    -0.343 N 
ATOM      5  N   UNL     1       5.381   0.608  -1.682  0.00  0.00    -0.327 N 
ATOM      6  C   UNL     1       2.249  -0.102   0.815  0.00  0.00    +0.015 A 
ATOM      7  C   UNL     1       2.802  -1.105   0.073  0.00  0.00    +0.125 A 
ATOM      8  C   UNL     1       2.784   1.148   0.691  0.00  0.00    +0.121 A 
ATOM      9  C   UNL     1       4.295   0.362  -0.815  0.00  0.00    +0.214 A 
ATOM     10  H   UNL     1       1.936  -2.738   1.074  0.00  0.00    +0.144 HD
ATOM     11  H   UNL     1       2.704  -3.111  -0.419  0.00  0.00    +0.144 HD
ATOM     12  H   UNL     1       5.758   1.543  -1.753  0.00  0.00    +0.145 HD
ATOM     13  H   UNL     1       5.771  -0.154  -2.219  0.00  0.00    +0.145 HD
ENDBRANCH   1   6
BRANCH   1  14
ATOM     14  C   UNL     1      -0.253  -0.151   1.117  0.00  0.00    -0.036 A 
ATOM     15  C   UNL     1      -0.891  -1.236   0.517  0.00  0.00    +0.053 A 
ATOM     16  C   UNL     1      -0.864   1.103   1.120  0.00  0.00    +0.053 A 
ATOM     17  C   UNL     1      -2.113   1.272   0.523  0.00  0.00    +0.165 A 
ATOM     18  C   UNL     1      -2.141  -1.067  -0.080  0.00  0.00    +0.165 A 
ATOM     19  C   UNL     1      -2.751   0.187  -0.077  0.00  0.00    +0.204 A 
BRANCH  17  20
ATOM     20  O   UNL     1      -2.699   2.502   0.533  0.00  0.00    -0.491 OA
ATOM     21  C   UNL     1      -2.412   3.365  -0.566  0.00  0.00    +0.277 C 
ENDBRANCH  17  20
BRANCH  18  22
ATOM     22  O   UNL     1      -2.753  -2.136  -0.662  0.00  0.00    -0.491 OA
ATOM     23  C   UNL     1      -3.609  -2.922   0.164  0.00  0.00    +0.277 C 
ENDBRANCH  18  22
BRANCH  19  24
ATOM     24  O   UNL     1      -3.973   0.351  -0.661  0.00  0.00    -0.488 OA
ATOM     25  C   UNL     1      -4.070   0.056  -2.052  0.00  0.00    +0.277 C 
ENDBRANCH  19  24
ENDBRANCH   1  14
TORSDOF 5
