MODEL 1
REMARK VINA RESULT:    -8.894      0.000      0.000
REMARK INTER + INTRA:         -15.168
REMARK INTER:                 -14.093
REMARK INTRA:                  -1.075
REMARK UNBOUND:                -1.075
REMARK  Name = 126941
REMARK  12 active torsions:
REMARK  status: ('A' for Active; 'I' for Inactive)
REMARK    1  A    between atoms: O_1  and  C_23
REMARK    2  A    between atoms: OE1_4  and  CD_28
REMARK    3  A    between atoms: N_6  and  C_16
REMARK    4  A    between atoms: N_6  and  C_18
REMARK    5  A    between atoms: N_6  and  C_27
REMARK    6  A    between atoms: N_7  and  CA_14
REMARK    7  A    between atoms: CA_14  and  CB_15
REMARK    8  A    between atoms: CA_14  and  C_23
REMARK    9  A    between atoms: CB_15  and  CG_17
REMARK   10  A    between atoms: CG_17  and  CD_28
REMARK   11  A    between atoms: C_18  and  C_26
REMARK   12  A    between atoms: C_19  and  C_20
REMARK                            x       y       z     vdW  Elec       q    Type
REMARK                         _______ _______ _______ _____ _____    ______ ____
ROOT
ATOM      1  C   UNL     1       5.815   5.049   4.790  0.00  0.00    +0.030 A 
ATOM      2  C   UNL     1       5.299   2.523   3.725  0.00  0.00    +0.037 A 
ATOM      3  C   UNL     1       4.499   4.640   4.574  0.00  0.00    +0.024 A 
ATOM      4  C   UNL     1       6.872   4.195   4.475  0.00  0.00    +0.024 A 
ATOM      5  C   UNL     1       4.241   3.376   4.041  0.00  0.00    +0.015 A 
ATOM      6  C   UNL     1       6.614   2.933   3.943  0.00  0.00    +0.015 A 
ENDROOT
BRANCH   2   9
ATOM      7  O   UNL     1       3.900   0.925   2.731  0.00  0.00    -0.270 OA
ATOM      8  N   UNL     1       6.097   0.296   3.134  0.00  0.00    -0.298 N 
ATOM      9  C   ACE A   0       5.024   1.177   3.158  0.00  0.00    +0.245 C 
ATOM     10  H   UNL     1       7.017   0.603   3.429  0.00  0.00    +0.150 HD
BRANCH   8  11
ATOM     11  CA  UNL     1       5.994  -1.035   2.592  0.00  0.00    +0.182 C 
BRANCH  11  13
ATOM     12  OXT UNL     1       6.295  -2.408   4.581  0.00  0.00    -0.249 OA
ATOM     13  C   UNL     1       6.735  -1.968   3.527  0.00  0.00    +0.325 C 
BRANCH  13  14
ATOM     14  O   UNL     1       7.959  -2.306   3.041  0.00  0.00    -0.479 OA
ATOM     15  H   UNL     1       7.897  -2.991   2.341  0.00  0.00    +0.295 HD
ENDBRANCH  13  14
ENDBRANCH  11  13
BRANCH  11  16
ATOM     16  CB  UNL     1       6.461  -1.120   1.134  0.00  0.00    +0.045 C 
BRANCH  16  17
ATOM     17  CG  UNL     1       5.368  -1.411   0.098  0.00  0.00    +0.123 C 
BRANCH  17  19
ATOM     18  OE2 UNL     1       5.407   0.508  -1.403  0.00  0.00    -0.251 OA
ATOM     19  CD  UNL     1       4.818  -0.170  -0.574  0.00  0.00    +0.305 C 
BRANCH  19  20
ATOM     20  OE1 UNL     1       3.579   0.141  -0.112  0.00  0.00    -0.481 OA
ATOM     21  HE1 UNL     1       3.368   1.090  -0.241  0.00  0.00    +0.295 HD
ENDBRANCH  19  20
ENDBRANCH  17  19
ENDBRANCH  16  17
ENDBRANCH  11  16
ENDBRANCH   8  11
ENDBRANCH   2   9
BRANCH   1  22
ATOM     22  N   UNL     1       6.076   6.327   5.328  0.00  0.00    -0.327 N 
ATOM     23  C   UNL     1       7.414   6.882   5.284  0.00  0.00    +0.129 C 
BRANCH  22  24
ATOM     24  C   UNL     1       5.006   7.107   5.917  0.00  0.00    +0.161 C 
BRANCH  24  31
ATOM     25  N   UNL     1       5.131   9.252   4.763  0.00  0.00    -0.242 NA
ATOM     26  N   UNL     1       2.842   8.704   3.306  0.00  0.00    -0.232 NA
ATOM     27  N   UNL     1       3.012  10.754   2.242  0.00  0.00    -0.193 NA
ATOM     28  N   UNL     1       4.804  12.263   2.752  0.00  0.00    -0.198 NA
ATOM     29  N   UNL     1       6.422  11.654   4.362  0.00  0.00    -0.341 N 
ATOM     30  N   UNL     1       3.181  12.830   1.162  0.00  0.00    -0.327 N 
ATOM     31  C   UNL     1       4.467   8.097   4.922  0.00  0.00    +0.077 A 
ATOM     32  C   UNL     1       3.336   7.826   4.201  0.00  0.00    +0.138 A 
ATOM     33  C   UNL     1       4.637  10.128   3.868  0.00  0.00    +0.148 A 
ATOM     34  C   UNL     1       3.482   9.866   3.126  0.00  0.00    +0.185 A 
ATOM     35  C   UNL     1       5.246  11.345   3.630  0.00  0.00    +0.149 A 
ATOM     36  C   UNL     1       3.693  11.905   2.098  0.00  0.00    +0.216 A 
ATOM     37  H   UNL     1       6.852  12.553   4.185  0.00  0.00    +0.144 HD
ATOM     38  H   UNL     1       6.542  11.234   5.276  0.00  0.00    +0.144 HD
ATOM     39  H   UNL     1       3.658  13.709   1.020  0.00  0.00    +0.145 HD
ATOM     40  H   UNL     1       2.343  12.603   0.646  0.00  0.00    +0.145 HD
ENDBRANCH  24  31
ENDBRANCH  22  24
ENDBRANCH   1  22
TORSDOF 11
ENDMDL
MODEL 2
REMARK VINA RESULT:    -8.857      4.627     10.254
REMARK INTER + INTRA:         -15.109
REMARK INTER:                 -14.533
REMARK INTRA:                  -0.576
REMARK UNBOUND:                -1.075
REMARK  Name = 126941
REMARK  12 active torsions:
REMARK  status: ('A' for Active; 'I' for Inactive)
REMARK    1  A    between atoms: O_1  and  C_23
REMARK    2  A    between atoms: OE1_4  and  CD_28
REMARK    3  A    between atoms: N_6  and  C_16
REMARK    4  A    between atoms: N_6  and  C_18
REMARK    5  A    between atoms: N_6  and  C_27
REMARK    6  A    between atoms: N_7  and  CA_14
REMARK    7  A    between atoms: CA_14  and  CB_15
REMARK    8  A    between atoms: CA_14  and  C_23
REMARK    9  A    between atoms: CB_15  and  CG_17
REMARK   10  A    between atoms: CG_17  and  CD_28
REMARK   11  A    between atoms: C_18  and  C_26
REMARK   12  A    between atoms: C_19  and  C_20
REMARK                            x       y       z     vdW  Elec       q    Type
REMARK                         _______ _______ _______ _____ _____    ______ ____
ROOT
ATOM      1  C   UNL     1       6.365   5.271   5.218  0.00  0.00    +0.030 A 
ATOM      2  C   UNL     1       5.037   7.701   4.877  0.00  0.00    +0.037 A 
ATOM      3  C   UNL     1       7.073   6.470   5.300  0.00  0.00    +0.024 A 
ATOM      4  C   UNL     1       4.993   5.287   4.966  0.00  0.00    +0.024 A 
ATOM      5  C   UNL     1       6.409   7.686   5.129  0.00  0.00    +0.015 A 
ATOM      6  C   UNL     1       4.330   6.501   4.796  0.00  0.00    +0.015 A 
ENDROOT
BRANCH   2   9
ATOM      7  O   UNL     1       4.769  10.000   5.247  0.00  0.00    -0.270 OA
ATOM      8  N   UNL     1       3.211   8.967   3.873  0.00  0.00    -0.298 N 
ATOM      9  C   ACE A   0       4.330   8.995   4.695  0.00  0.00    +0.245 C 
ATOM     10  H   UNL     1       2.956   8.115   3.385  0.00  0.00    +0.150 HD
BRANCH   8  11
ATOM     11  CA  UNL     1       2.436  10.145   3.580  0.00  0.00    +0.182 C 
BRANCH  11  13
ATOM     12  OXT UNL     1       0.561   8.644   3.180  0.00  0.00    -0.249 OA
ATOM     13  C   UNL     1       0.978   9.736   3.542  0.00  0.00    +0.325 C 
BRANCH  13  14
ATOM     14  O   UNL     1       0.162  10.722   3.998  0.00  0.00    -0.479 OA
ATOM     15  H   UNL     1       0.005  11.411   3.317  0.00  0.00    +0.295 HD
ENDBRANCH  13  14
ENDBRANCH  11  13
BRANCH  11  16
ATOM     16  CB  UNL     1       2.910  10.867   2.313  0.00  0.00    +0.045 C 
BRANCH  16  17
ATOM     17  CG  UNL     1       3.729  12.144   2.538  0.00  0.00    +0.123 C 
BRANCH  17  19
ATOM     18  OE2 UNL     1       4.953  13.580   0.997  0.00  0.00    -0.251 OA
ATOM     19  CD  UNL     1       3.936  12.965   1.283  0.00  0.00    +0.305 C 
BRANCH  19  20
ATOM     20  OE1 UNL     1       2.823  12.978   0.505  0.00  0.00    -0.481 OA
ATOM     21  HE1 UNL     1       2.413  12.090   0.438  0.00  0.00    +0.295 HD
ENDBRANCH  19  20
ENDBRANCH  17  19
ENDBRANCH  16  17
ENDBRANCH  11  16
ENDBRANCH   8  11
ENDBRANCH   2   9
BRANCH   1  22
ATOM     22  N   UNL     1       7.036   4.043   5.390  0.00  0.00    -0.327 N 
ATOM     23  C   UNL     1       8.479   3.974   5.275  0.00  0.00    +0.129 C 
BRANCH  22  24
ATOM     24  C   UNL     1       6.294   2.837   5.699  0.00  0.00    +0.161 C 
BRANCH  24  31
ATOM     25  N   UNL     1       6.264   0.648   4.624  0.00  0.00    -0.242 NA
ATOM     26  N   UNL     1       5.786   1.774   2.141  0.00  0.00    -0.232 NA
ATOM     27  N   UNL     1       5.768  -0.330   1.174  0.00  0.00    -0.193 NA
ATOM     28  N   UNL     1       6.113  -2.299   2.499  0.00  0.00    -0.198 NA
ATOM     29  N   UNL     1       6.477  -2.093   4.825  0.00  0.00    -0.341 N 
ATOM     30  N   UNL     1       5.749  -2.461   0.192  0.00  0.00    -0.327 N 
ATOM     31  C   UNL     1       6.152   1.977   4.474  0.00  0.00    +0.077 A 
ATOM     32  C   UNL     1       5.915   2.533   3.246  0.00  0.00    +0.138 A 
ATOM     33  C   UNL     1       6.134  -0.109   3.518  0.00  0.00    +0.148 A 
ATOM     34  C   UNL     1       5.893   0.445   2.258  0.00  0.00    +0.185 A 
ATOM     35  C   UNL     1       6.233  -1.486   3.565  0.00  0.00    +0.149 A 
ATOM     36  C   UNL     1       5.883  -1.660   1.346  0.00  0.00    +0.216 A 
ATOM     37  H   UNL     1       6.556  -3.102   4.842  0.00  0.00    +0.144 HD
ATOM     38  H   UNL     1       6.974  -1.557   5.526  0.00  0.00    +0.144 HD
ATOM     39  H   UNL     1       5.829  -3.465   0.272  0.00  0.00    +0.145 HD
ATOM     40  H   UNL     1       5.576  -2.021  -0.701  0.00  0.00    +0.145 HD
ENDBRANCH  24  31
ENDBRANCH  22  24
ENDBRANCH   1  22
TORSDOF 11
ENDMDL
MODEL 3
REMARK VINA RESULT:    -8.715      1.431      2.105
REMARK INTER + INTRA:         -14.884
REMARK INTER:                 -13.818
REMARK INTRA:                  -1.066
REMARK UNBOUND:                -1.075
REMARK  Name = 126941
REMARK  12 active torsions:
REMARK  status: ('A' for Active; 'I' for Inactive)
REMARK    1  A    between atoms: O_1  and  C_23
REMARK    2  A    between atoms: OE1_4  and  CD_28
REMARK    3  A    between atoms: N_6  and  C_16
REMARK    4  A    between atoms: N_6  and  C_18
REMARK    5  A    between atoms: N_6  and  C_27
REMARK    6  A    between atoms: N_7  and  CA_14
REMARK    7  A    between atoms: CA_14  and  CB_15
REMARK    8  A    between atoms: CA_14  and  C_23
REMARK    9  A    between atoms: CB_15  and  CG_17
REMARK   10  A    between atoms: CG_17  and  CD_28
REMARK   11  A    between atoms: C_18  and  C_26
REMARK   12  A    between atoms: C_19  and  C_20
REMARK                            x       y       z     vdW  Elec       q    Type
REMARK                         _______ _______ _______ _____ _____    ______ ____
ROOT
ATOM      1  C   UNL     1       5.823   4.951   4.572  0.00  0.00    +0.030 A 
ATOM      2  C   UNL     1       5.424   2.530   3.244  0.00  0.00    +0.037 A 
ATOM      3  C   UNL     1       4.527   4.514   4.293  0.00  0.00    +0.024 A 
ATOM      4  C   UNL     1       6.918   4.177   4.187  0.00  0.00    +0.024 A 
ATOM      5  C   UNL     1       4.328   3.303   3.628  0.00  0.00    +0.015 A 
ATOM      6  C   UNL     1       6.718   2.967   3.524  0.00  0.00    +0.015 A 
ENDROOT
BRANCH   2   9
ATOM      7  O   UNL     1       4.997   0.225   3.192  0.00  0.00    -0.270 OA
ATOM      8  N   UNL     1       5.250   1.294   1.149  0.00  0.00    -0.298 N 
ATOM      9  C   ACE A   0       5.211   1.240   2.536  0.00  0.00    +0.245 C 
ATOM     10  H   UNL     1       5.350   2.185   0.674  0.00  0.00    +0.150 HD
BRANCH   8  11
ATOM     11  CA  UNL     1       5.038   0.133   0.323  0.00  0.00    +0.182 C 
BRANCH  11  13
ATOM     12  OXT UNL     1       7.153  -1.074   0.359  0.00  0.00    -0.249 OA
ATOM     13  C   UNL     1       6.387  -0.305  -0.207  0.00  0.00    +0.325 C 
BRANCH  13  14
ATOM     14  O   UNL     1       6.650   0.230  -1.429  0.00  0.00    -0.479 OA
ATOM     15  H   UNL     1       5.947   0.018  -2.079  0.00  0.00    +0.295 HD
ENDBRANCH  13  14
ENDBRANCH  11  13
BRANCH  11  16
ATOM     16  CB  UNL     1       3.989   0.368  -0.771  0.00  0.00    +0.045 C 
BRANCH  16  17
ATOM     17  CG  UNL     1       3.518   1.817  -0.945  0.00  0.00    +0.123 C 
BRANCH  17  19
ATOM     18  OE2 UNL     1       3.300   2.544  -3.260  0.00  0.00    -0.251 OA
ATOM     19  CD  UNL     1       3.970   2.454  -2.242  0.00  0.00    +0.305 C 
BRANCH  19  20
ATOM     20  OE1 UNL     1       5.254   2.892  -2.162  0.00  0.00    -0.481 OA
ATOM     21  HE1 UNL     1       5.681   2.936  -3.044  0.00  0.00    +0.295 HD
ENDBRANCH  19  20
ENDBRANCH  17  19
ENDBRANCH  16  17
ENDBRANCH  11  16
ENDBRANCH   8  11
ENDBRANCH   2   9
BRANCH   1  22
ATOM     22  N   UNL     1       6.024   6.175   5.242  0.00  0.00    -0.327 N 
ATOM     23  C   UNL     1       7.352   6.744   5.348  0.00  0.00    +0.129 C 
BRANCH  22  24
ATOM     24  C   UNL     1       4.902   6.888   5.821  0.00  0.00    +0.161 C 
BRANCH  24  31
ATOM     25  N   UNL     1       5.065   9.019   4.647  0.00  0.00    -0.242 NA
ATOM     26  N   UNL     1       2.686   8.566   3.306  0.00  0.00    -0.232 NA
ATOM     27  N   UNL     1       2.894  10.600   2.220  0.00  0.00    -0.193 NA
ATOM     28  N   UNL     1       4.773  12.032   2.632  0.00  0.00    -0.198 NA
ATOM     29  N   UNL     1       6.439  11.361   4.168  0.00  0.00    -0.341 N 
ATOM     30  N   UNL     1       3.101  12.662   1.119  0.00  0.00    -0.327 N 
ATOM     31  C   UNL     1       4.359   7.895   4.846  0.00  0.00    +0.077 A 
ATOM     32  C   UNL     1       3.184   7.671   4.182  0.00  0.00    +0.138 A 
ATOM     33  C   UNL     1       4.567   9.911   3.770  0.00  0.00    +0.148 A 
ATOM     34  C   UNL     1       3.367   9.697   3.087  0.00  0.00    +0.185 A 
ATOM     35  C   UNL     1       5.216  11.100   3.495  0.00  0.00    +0.149 A 
ATOM     36  C   UNL     1       3.617  11.720   2.035  0.00  0.00    +0.216 A 
ATOM     37  H   UNL     1       6.898  12.239   3.963  0.00  0.00    +0.144 HD
ATOM     38  H   UNL     1       6.585  10.939   5.077  0.00  0.00    +0.144 HD
ATOM     39  H   UNL     1       3.609  13.518   0.948  0.00  0.00    +0.145 HD
ATOM     40  H   UNL     1       2.230  12.469   0.645  0.00  0.00    +0.145 HD
ENDBRANCH  24  31
ENDBRANCH  22  24
ENDBRANCH   1  22
TORSDOF 11
ENDMDL
MODEL 4
REMARK VINA RESULT:    -8.614      2.699      4.900
REMARK INTER + INTRA:         -14.725
REMARK INTER:                 -13.269
REMARK INTRA:                  -1.456
REMARK UNBOUND:                -1.075
REMARK  Name = 126941
REMARK  12 active torsions:
REMARK  status: ('A' for Active; 'I' for Inactive)
REMARK    1  A    between atoms: O_1  and  C_23
REMARK    2  A    between atoms: OE1_4  and  CD_28
REMARK    3  A    between atoms: N_6  and  C_16
REMARK    4  A    between atoms: N_6  and  C_18
REMARK    5  A    between atoms: N_6  and  C_27
REMARK    6  A    between atoms: N_7  and  CA_14
REMARK    7  A    between atoms: CA_14  and  CB_15
REMARK    8  A    between atoms: CA_14  and  C_23
REMARK    9  A    between atoms: CB_15  and  CG_17
REMARK   10  A    between atoms: CG_17  and  CD_28
REMARK   11  A    between atoms: C_18  and  C_26
REMARK   12  A    between atoms: C_19  and  C_20
REMARK                            x       y       z     vdW  Elec       q    Type
REMARK                         _______ _______ _______ _____ _____    ______ ____
ROOT
ATOM      1  C   UNL     1       3.286   5.508   3.547  0.00  0.00    +0.030 A 
ATOM      2  C   UNL     1       3.517   3.066   2.219  0.00  0.00    +0.037 A 
ATOM      3  C   UNL     1       3.862   5.457   2.277  0.00  0.00    +0.024 A 
ATOM      4  C   UNL     1       2.826   4.338   4.152  0.00  0.00    +0.024 A 
ATOM      5  C   UNL     1       3.977   4.235   1.613  0.00  0.00    +0.015 A 
ATOM      6  C   UNL     1       2.941   3.118   3.488  0.00  0.00    +0.015 A 
ENDROOT
BRANCH   2   9
ATOM      7  O   UNL     1       2.659   1.298   0.940  0.00  0.00    -0.270 OA
ATOM      8  N   UNL     1       4.898   1.177   1.534  0.00  0.00    -0.298 N 
ATOM      9  C   ACE A   0       3.640   1.765   1.511  0.00  0.00    +0.245 C 
ATOM     10  H   UNL     1       5.682   1.662   1.957  0.00  0.00    +0.150 HD
BRANCH   8  11
ATOM     11  CA  UNL     1       5.181  -0.071   0.873  0.00  0.00    +0.182 C 
BRANCH  11  13
ATOM     12  OXT UNL     1       6.412  -0.653   2.893  0.00  0.00    -0.249 OA
ATOM     13  C   UNL     1       6.232  -0.795   1.690  0.00  0.00    +0.325 C 
BRANCH  13  14
ATOM     14  O   UNL     1       6.949  -1.668   0.935  0.00  0.00    -0.479 OA
ATOM     15  H   UNL     1       7.485  -1.208   0.254  0.00  0.00    +0.295 HD
ENDBRANCH  13  14
ENDBRANCH  11  13
BRANCH  11  16
ATOM     16  CB  UNL     1       5.562   0.112  -0.602  0.00  0.00    +0.045 C 
BRANCH  16  17
ATOM     17  CG  UNL     1       6.285   1.419  -0.947  0.00  0.00    +0.123 C 
BRANCH  17  19
ATOM     18  OE2 UNL     1       4.339   2.250  -2.154  0.00  0.00    -0.251 OA
ATOM     19  CD  UNL     1       5.385   2.470  -1.562  0.00  0.00    +0.305 C 
BRANCH  19  20
ATOM     20  OE1 UNL     1       5.902   3.718  -1.416  0.00  0.00    -0.481 OA
ATOM     21  HE1 UNL     1       6.629   3.889  -2.052  0.00  0.00    +0.295 HD
ENDBRANCH  19  20
ENDBRANCH  17  19
ENDBRANCH  16  17
ENDBRANCH  11  16
ENDBRANCH   8  11
ENDBRANCH   2   9
BRANCH   1  22
ATOM     22  N   UNL     1       3.170   6.743   4.219  0.00  0.00    -0.327 N 
ATOM     23  C   UNL     1       2.455   7.845   3.608  0.00  0.00    +0.129 C 
BRANCH  22  24
ATOM     24  C   UNL     1       3.751   6.921   5.534  0.00  0.00    +0.161 C 
BRANCH  24  31
ATOM     25  N   UNL     1       5.888   5.748   5.630  0.00  0.00    -0.242 NA
ATOM     26  N   UNL     1       7.293   8.078   5.124  0.00  0.00    -0.232 NA
ATOM     27  N   UNL     1       9.291   6.912   5.226  0.00  0.00    -0.193 NA
ATOM     28  N   UNL     1       9.322   4.553   5.658  0.00  0.00    -0.198 NA
ATOM     29  N   UNL     1       7.286   3.399   5.984  0.00  0.00    -0.341 N 
ATOM     30  N   UNL     1      11.318   5.733   5.329  0.00  0.00    -0.327 N 
ATOM     31  C   UNL     1       5.253   6.917   5.452  0.00  0.00    +0.077 A 
ATOM     32  C   UNL     1       5.948   8.068   5.201  0.00  0.00    +0.138 A 
ATOM     33  C   UNL     1       7.232   5.759   5.552  0.00  0.00    +0.148 A 
ATOM     34  C   UNL     1       7.954   6.927   5.298  0.00  0.00    +0.185 A 
ATOM     35  C   UNL     1       7.979   4.610   5.723  0.00  0.00    +0.149 A 
ATOM     36  C   UNL     1       9.908   5.730   5.408  0.00  0.00    +0.216 A 
ATOM     37  H   UNL     1       7.847   2.567   6.115  0.00  0.00    +0.144 HD
ATOM     38  H   UNL     1       6.385   3.452   6.444  0.00  0.00    +0.144 HD
ATOM     39  H   UNL     1      11.824   4.869   5.460  0.00  0.00    +0.145 HD
ATOM     40  H   UNL     1      11.803   6.599   5.144  0.00  0.00    +0.145 HD
ENDBRANCH  24  31
ENDBRANCH  22  24
ENDBRANCH   1  22
TORSDOF 11
ENDMDL
MODEL 5
REMARK VINA RESULT:    -8.608      2.180      2.563
REMARK INTER + INTRA:         -14.715
REMARK INTER:                 -13.492
REMARK INTRA:                  -1.223
REMARK UNBOUND:                -1.075
REMARK  Name = 126941
REMARK  12 active torsions:
REMARK  status: ('A' for Active; 'I' for Inactive)
REMARK    1  A    between atoms: O_1  and  C_23
REMARK    2  A    between atoms: OE1_4  and  CD_28
REMARK    3  A    between atoms: N_6  and  C_16
REMARK    4  A    between atoms: N_6  and  C_18
REMARK    5  A    between atoms: N_6  and  C_27
REMARK    6  A    between atoms: N_7  and  CA_14
REMARK    7  A    between atoms: CA_14  and  CB_15
REMARK    8  A    between atoms: CA_14  and  C_23
REMARK    9  A    between atoms: CB_15  and  CG_17
REMARK   10  A    between atoms: CG_17  and  CD_28
REMARK   11  A    between atoms: C_18  and  C_26
REMARK   12  A    between atoms: C_19  and  C_20
REMARK                            x       y       z     vdW  Elec       q    Type
REMARK                         _______ _______ _______ _____ _____    ______ ____
ROOT
ATOM      1  C   UNL     1       4.062   5.291   4.337  0.00  0.00    +0.030 A 
ATOM      2  C   UNL     1       4.299   2.624   3.556  0.00  0.00    +0.037 A 
ATOM      3  C   UNL     1       5.306   4.660   4.380  0.00  0.00    +0.024 A 
ATOM      4  C   UNL     1       2.938   4.589   3.903  0.00  0.00    +0.024 A 
ATOM      5  C   UNL     1       5.425   3.326   3.989  0.00  0.00    +0.015 A 
ATOM      6  C   UNL     1       3.057   3.256   3.513  0.00  0.00    +0.015 A 
ENDROOT
BRANCH   2   9
ATOM      7  O   UNL     1       3.429   0.602   2.747  0.00  0.00    -0.270 OA
ATOM      8  N   UNL     1       5.702   0.660   3.209  0.00  0.00    -0.298 N 
ATOM      9  C   ACE A   0       4.426   1.203   3.140  0.00  0.00    +0.245 C 
ATOM     10  H   UNL     1       6.492   1.242   3.465  0.00  0.00    +0.150 HD
BRANCH   8  11
ATOM     11  CA  UNL     1       5.989  -0.696   2.816  0.00  0.00    +0.182 C 
BRANCH  11  13
ATOM     12  OXT UNL     1       6.667  -1.621   4.965  0.00  0.00    -0.249 OA
ATOM     13  C   UNL     1       6.958  -1.271   3.829  0.00  0.00    +0.325 C 
BRANCH  13  14
ATOM     14  O   UNL     1       8.211  -1.394   3.318  0.00  0.00    -0.479 OA
ATOM     15  H   UNL     1       8.418  -0.678   2.680  0.00  0.00    +0.295 HD
ENDBRANCH  13  14
ENDBRANCH  11  13
BRANCH  11  16
ATOM     16  CB  UNL     1       6.474  -0.804   1.365  0.00  0.00    +0.045 C 
BRANCH  16  17
ATOM     17  CG  UNL     1       5.435  -1.295   0.349  0.00  0.00    +0.123 C 
BRANCH  17  19
ATOM     18  OE2 UNL     1       5.449   0.433  -1.369  0.00  0.00    -0.251 OA
ATOM     19  CD  UNL     1       4.849  -0.191  -0.506  0.00  0.00    +0.305 C 
BRANCH  19  20
ATOM     20  OE1 UNL     1       3.558   0.067  -0.172  0.00  0.00    -0.481 OA
ATOM     21  HE1 UNL     1       3.361   1.028  -0.187  0.00  0.00    +0.295 HD
ENDBRANCH  19  20
ENDBRANCH  17  19
ENDBRANCH  16  17
ENDBRANCH  11  16
ENDBRANCH   8  11
ENDBRANCH   2   9
BRANCH   1  22
ATOM     22  N   UNL     1       3.943   6.640   4.733  0.00  0.00    -0.327 N 
ATOM     23  C   UNL     1       3.802   6.983   6.134  0.00  0.00    +0.129 C 
BRANCH  22  24
ATOM     24  C   UNL     1       3.976   7.700   3.746  0.00  0.00    +0.161 C 
BRANCH  24  31
ATOM     25  N   UNL     1       3.116   9.823   4.584  0.00  0.00    -0.242 NA
ATOM     26  N   UNL     1       0.547   9.216   3.751  0.00  0.00    -0.232 NA
ATOM     27  N   UNL     1      -0.212  11.247   4.565  0.00  0.00    -0.193 NA
ATOM     28  N   UNL     1       1.288  12.790   5.622  0.00  0.00    -0.198 NA
ATOM     29  N   UNL     1       3.575  12.235   5.838  0.00  0.00    -0.341 N 
ATOM     30  N   UNL     1      -0.985  13.304   5.390  0.00  0.00    -0.327 N 
ATOM     31  C   UNL     1       2.842   8.663   3.969  0.00  0.00    +0.077 A 
ATOM     32  C   UNL     1       1.572   8.363   3.557  0.00  0.00    +0.138 A 
ATOM     33  C   UNL     1       2.091  10.675   4.776  0.00  0.00    +0.148 A 
ATOM     34  C   UNL     1       0.790  10.382   4.362  0.00  0.00    +0.185 A 
ATOM     35  C   UNL     1       2.268  11.895   5.399  0.00  0.00    +0.149 A 
ATOM     36  C   UNL     1       0.084  12.405   5.183  0.00  0.00    +0.216 A 
ATOM     37  H   UNL     1       3.687  13.128   6.301  0.00  0.00    +0.144 HD
ATOM     38  H   UNL     1       4.210  11.484   6.076  0.00  0.00    +0.144 HD
ATOM     39  H   UNL     1      -0.810  14.185   5.850  0.00  0.00    +0.145 HD
ATOM     40  H   UNL     1      -1.912  13.054   5.075  0.00  0.00    +0.145 HD
ENDBRANCH  24  31
ENDBRANCH  22  24
ENDBRANCH   1  22
TORSDOF 11
ENDMDL
MODEL 6
REMARK VINA RESULT:    -8.504      1.257      2.273
REMARK INTER + INTRA:         -14.549
REMARK INTER:                 -14.017
REMARK INTRA:                  -0.532
REMARK UNBOUND:                -1.075
REMARK  Name = 126941
REMARK  12 active torsions:
REMARK  status: ('A' for Active; 'I' for Inactive)
REMARK    1  A    between atoms: O_1  and  C_23
REMARK    2  A    between atoms: OE1_4  and  CD_28
REMARK    3  A    between atoms: N_6  and  C_16
REMARK    4  A    between atoms: N_6  and  C_18
REMARK    5  A    between atoms: N_6  and  C_27
REMARK    6  A    between atoms: N_7  and  CA_14
REMARK    7  A    between atoms: CA_14  and  CB_15
REMARK    8  A    between atoms: CA_14  and  C_23
REMARK    9  A    between atoms: CB_15  and  CG_17
REMARK   10  A    between atoms: CG_17  and  CD_28
REMARK   11  A    between atoms: C_18  and  C_26
REMARK   12  A    between atoms: C_19  and  C_20
REMARK                            x       y       z     vdW  Elec       q    Type
REMARK                         _______ _______ _______ _____ _____    ______ ____
ROOT
ATOM      1  C   UNL     1       4.543   5.952   4.588  0.00  0.00    +0.030 A 
ATOM      2  C   UNL     1       4.405   3.381   3.516  0.00  0.00    +0.037 A 
ATOM      3  C   UNL     1       5.488   4.993   4.954  0.00  0.00    +0.024 A 
ATOM      4  C   UNL     1       3.530   5.625   3.686  0.00  0.00    +0.024 A 
ATOM      5  C   UNL     1       5.418   3.706   4.418  0.00  0.00    +0.015 A 
ATOM      6  C   UNL     1       3.461   4.341   3.150  0.00  0.00    +0.015 A 
ENDROOT
BRANCH   2   9
ATOM      7  O   UNL     1       3.255   1.593   2.526  0.00  0.00    -0.270 OA
ATOM      8  N   UNL     1       5.525   1.301   2.910  0.00  0.00    -0.298 N 
ATOM      9  C   ACE A   0       4.331   2.010   2.945  0.00  0.00    +0.245 C 
ATOM     10  H   UNL     1       6.391   1.743   3.199  0.00  0.00    +0.150 HD
BRANCH   8  11
ATOM     11  CA  UNL     1       5.619  -0.028   2.364  0.00  0.00    +0.182 C 
BRANCH  11  13
ATOM     12  OXT UNL     1       6.409  -1.013   4.447  0.00  0.00    -0.249 OA
ATOM     13  C   UNL     1       6.561  -0.821   3.247  0.00  0.00    +0.325 C 
BRANCH  13  14
ATOM     14  O   UNL     1       7.600  -1.341   2.543  0.00  0.00    -0.479 OA
ATOM     15  H   UNL     1       8.266  -1.760   3.130  0.00  0.00    +0.295 HD
ENDBRANCH  13  14
ENDBRANCH  11  13
BRANCH  11  16
ATOM     16  CB  UNL     1       6.011  -0.034   0.881  0.00  0.00    +0.045 C 
BRANCH  16  17
ATOM     17  CG  UNL     1       4.929  -0.518  -0.093  0.00  0.00    +0.123 C 
BRANCH  17  19
ATOM     18  OE2 UNL     1       4.672   1.420  -1.547  0.00  0.00    -0.251 OA
ATOM     19  CD  UNL     1       4.181   0.605  -0.780  0.00  0.00    +0.305 C 
BRANCH  19  20
ATOM     20  OE1 UNL     1       2.874   0.635  -0.409  0.00  0.00    -0.481 OA
ATOM     21  HE1 UNL     1       2.682   1.384   0.195  0.00  0.00    +0.295 HD
ENDBRANCH  19  20
ENDBRANCH  17  19
ENDBRANCH  16  17
ENDBRANCH  11  16
ENDBRANCH   8  11
ENDBRANCH   2   9
BRANCH   1  22
ATOM     22  N   UNL     1       4.613   7.252   5.131  0.00  0.00    -0.327 N 
ATOM     23  C   UNL     1       3.411   7.924   5.582  0.00  0.00    +0.129 C 
BRANCH  22  24
ATOM     24  C   UNL     1       5.889   7.927   5.259  0.00  0.00    +0.161 C 
BRANCH  24  31
ATOM     25  N   UNL     1       4.722   9.625   3.954  0.00  0.00    -0.242 NA
ATOM     26  N   UNL     1       7.047  11.086   3.607  0.00  0.00    -0.232 NA
ATOM     27  N   UNL     1       5.886  12.667   2.375  0.00  0.00    -0.193 NA
ATOM     28  N   UNL     1       3.534  12.431   1.971  0.00  0.00    -0.198 NA
ATOM     29  N   UNL     1       2.381  10.561   2.839  0.00  0.00    -0.341 N 
ATOM     30  N   UNL     1       4.713  14.270   1.126  0.00  0.00    -0.327 N 
ATOM     31  C   UNL     1       5.887   9.211   4.477  0.00  0.00    +0.077 A 
ATOM     32  C   UNL     1       7.036   9.934   4.305  0.00  0.00    +0.138 A 
ATOM     33  C   UNL     1       4.735  10.777   3.257  0.00  0.00    +0.148 A 
ATOM     34  C   UNL     1       5.900  11.524   3.073  0.00  0.00    +0.185 A 
ATOM     35  C   UNL     1       3.589  11.288   2.678  0.00  0.00    +0.149 A 
ATOM     36  C   UNL     1       4.708  13.063   1.860  0.00  0.00    +0.216 A 
ATOM     37  H   UNL     1       1.552  10.943   2.402  0.00  0.00    +0.144 HD
ATOM     38  H   UNL     1       2.439   9.558   2.971  0.00  0.00    +0.144 HD
ATOM     39  H   UNL     1       3.852  14.608   0.720  0.00  0.00    +0.145 HD
ATOM     40  H   UNL     1       5.577  14.781   1.016  0.00  0.00    +0.145 HD
ENDBRANCH  24  31
ENDBRANCH  22  24
ENDBRANCH   1  22
TORSDOF 11
ENDMDL
MODEL 7
REMARK VINA RESULT:    -8.501      4.826      9.381
REMARK INTER + INTRA:         -14.545
REMARK INTER:                 -13.208
REMARK INTRA:                  -1.337
REMARK UNBOUND:                -1.075
REMARK  Name = 126941
REMARK  12 active torsions:
REMARK  status: ('A' for Active; 'I' for Inactive)
REMARK    1  A    between atoms: O_1  and  C_23
REMARK    2  A    between atoms: OE1_4  and  CD_28
REMARK    3  A    between atoms: N_6  and  C_16
REMARK    4  A    between atoms: N_6  and  C_18
REMARK    5  A    between atoms: N_6  and  C_27
REMARK    6  A    between atoms: N_7  and  CA_14
REMARK    7  A    between atoms: CA_14  and  CB_15
REMARK    8  A    between atoms: CA_14  and  C_23
REMARK    9  A    between atoms: CB_15  and  CG_17
REMARK   10  A    between atoms: CG_17  and  CD_28
REMARK   11  A    between atoms: C_18  and  C_26
REMARK   12  A    between atoms: C_19  and  C_20
REMARK                            x       y       z     vdW  Elec       q    Type
REMARK                         _______ _______ _______ _____ _____    ______ ____
ROOT
ATOM      1  C   UNL     1       4.847   3.737   4.182  0.00  0.00    +0.030 A 
ATOM      2  C   UNL     1       4.040   6.383   4.544  0.00  0.00    +0.037 A 
ATOM      3  C   UNL     1       3.577   4.141   3.771  0.00  0.00    +0.024 A 
ATOM      4  C   UNL     1       5.714   4.657   4.774  0.00  0.00    +0.024 A 
ATOM      5  C   UNL     1       3.173   5.465   3.952  0.00  0.00    +0.015 A 
ATOM      6  C   UNL     1       5.310   5.979   4.954  0.00  0.00    +0.015 A 
ENDROOT
BRANCH   2   9
ATOM      7  O   UNL     1       3.924   8.380   5.768  0.00  0.00    -0.270 OA
ATOM      8  N   UNL     1       2.886   8.355   3.693  0.00  0.00    -0.298 N 
ATOM      9  C   ACE A   0       3.610   7.793   4.736  0.00  0.00    +0.245 C 
ATOM     10  H   UNL     1       2.734   7.834   2.836  0.00  0.00    +0.150 HD
BRANCH   8  11
ATOM     11  CA  UNL     1       2.420   9.718   3.721  0.00  0.00    +0.182 C 
BRANCH  11  13
ATOM     12  OXT UNL     1       0.135  10.395   4.223  0.00  0.00    -0.249 OA
ATOM     13  C   UNL     1       0.911   9.690   3.591  0.00  0.00    +0.325 C 
BRANCH  13  14
ATOM     14  O   UNL     1       0.500   8.802   2.648  0.00  0.00    -0.479 OA
ATOM     15  H   UNL     1       1.221   8.194   2.380  0.00  0.00    +0.295 HD
ENDBRANCH  13  14
ENDBRANCH  11  13
BRANCH  11  16
ATOM     16  CB  UNL     1       3.114  10.603   2.678  0.00  0.00    +0.045 C 
BRANCH  16  17
ATOM     17  CG  UNL     1       4.034  11.697   3.235  0.00  0.00    +0.123 C 
BRANCH  17  19
ATOM     18  OE2 UNL     1       3.458  12.214   5.546  0.00  0.00    -0.251 OA
ATOM     19  CD  UNL     1       4.189  11.655   4.741  0.00  0.00    +0.305 C 
BRANCH  19  20
ATOM     20  OE1 UNL     1       5.284  10.941   5.110  0.00  0.00    -0.481 OA
ATOM     21  HE1 UNL     1       5.739  11.342   5.881  0.00  0.00    +0.295 HD
ENDBRANCH  19  20
ENDBRANCH  17  19
ENDBRANCH  16  17
ENDBRANCH  11  16
ENDBRANCH   8  11
ENDBRANCH   2   9
BRANCH   1  22
ATOM     22  N   UNL     1       5.255   2.400   4.000  0.00  0.00    -0.327 N 
ATOM     23  C   UNL     1       4.659   1.338   4.786  0.00  0.00    +0.129 C 
BRANCH  22  24
ATOM     24  C   UNL     1       6.263   2.067   3.014  0.00  0.00    +0.161 C 
BRANCH  24  31
ATOM     25  N   UNL     1       4.902   1.705   1.022  0.00  0.00    -0.242 NA
ATOM     26  N   UNL     1       5.911   3.979  -0.191  0.00  0.00    -0.232 NA
ATOM     27  N   UNL     1       4.596   3.585  -2.056  0.00  0.00    -0.193 NA
ATOM     28  N   UNL     1       3.139   1.683  -2.157  0.00  0.00    -0.198 NA
ATOM     29  N   UNL     1       3.041   0.187  -0.331  0.00  0.00    -0.341 N 
ATOM     30  N   UNL     1       3.264   3.188  -3.947  0.00  0.00    -0.327 N 
ATOM     31  C   UNL     1       5.810   2.477   1.639  0.00  0.00    +0.077 A 
ATOM     32  C   UNL     1       6.308   3.601   1.040  0.00  0.00    +0.138 A 
ATOM     33  C   UNL     1       4.506   2.085  -0.207  0.00  0.00    +0.148 A 
ATOM     34  C   UNL     1       5.007   3.229  -0.832  0.00  0.00    +0.185 A 
ATOM     35  C   UNL     1       3.577   1.359  -0.927  0.00  0.00    +0.149 A 
ATOM     36  C   UNL     1       3.685   2.798  -2.657  0.00  0.00    +0.216 A 
ATOM     37  H   UNL     1       2.368  -0.339  -0.874  0.00  0.00    +0.144 HD
ATOM     38  H   UNL     1       3.608  -0.307   0.346  0.00  0.00    +0.144 HD
ATOM     39  H   UNL     1       2.582   2.628  -4.438  0.00  0.00    +0.145 HD
ATOM     40  H   UNL     1       3.651   4.023  -4.364  0.00  0.00    +0.145 HD
ENDBRANCH  24  31
ENDBRANCH  22  24
ENDBRANCH   1  22
TORSDOF 11
ENDMDL
MODEL 8
REMARK VINA RESULT:    -8.457      1.560      3.525
REMARK INTER + INTRA:         -14.475
REMARK INTER:                 -13.441
REMARK INTRA:                  -1.035
REMARK UNBOUND:                -1.075
REMARK  Name = 126941
REMARK  12 active torsions:
REMARK  status: ('A' for Active; 'I' for Inactive)
REMARK    1  A    between atoms: O_1  and  C_23
REMARK    2  A    between atoms: OE1_4  and  CD_28
REMARK    3  A    between atoms: N_6  and  C_16
REMARK    4  A    between atoms: N_6  and  C_18
REMARK    5  A    between atoms: N_6  and  C_27
REMARK    6  A    between atoms: N_7  and  CA_14
REMARK    7  A    between atoms: CA_14  and  CB_15
REMARK    8  A    between atoms: CA_14  and  C_23
REMARK    9  A    between atoms: CB_15  and  CG_17
REMARK   10  A    between atoms: CG_17  and  CD_28
REMARK   11  A    between atoms: C_18  and  C_26
REMARK   12  A    between atoms: C_19  and  C_20
REMARK                            x       y       z     vdW  Elec       q    Type
REMARK                         _______ _______ _______ _____ _____    ______ ____
ROOT
ATOM      1  C   UNL     1       4.074   5.670   3.931  0.00  0.00    +0.030 A 
ATOM      2  C   UNL     1       5.036   3.202   3.057  0.00  0.00    +0.037 A 
ATOM      3  C   UNL     1       3.560   5.093   2.769  0.00  0.00    +0.024 A 
ATOM      4  C   UNL     1       5.069   5.013   4.655  0.00  0.00    +0.024 A 
ATOM      5  C   UNL     1       4.041   3.858   2.332  0.00  0.00    +0.015 A 
ATOM      6  C   UNL     1       5.549   3.779   4.219  0.00  0.00    +0.015 A 
ENDROOT
BRANCH   2   9
ATOM      7  O   UNL     1       6.448   1.337   3.221  0.00  0.00    -0.270 OA
ATOM      8  N   UNL     1       4.935   1.361   1.462  0.00  0.00    -0.298 N 
ATOM      9  C   ACE A   0       5.548   1.887   2.591  0.00  0.00    +0.245 C 
ATOM     10  H   UNL     1       4.142   1.834   1.043  0.00  0.00    +0.150 HD
BRANCH   8  11
ATOM     11  CA  UNL     1       5.304   0.084   0.905  0.00  0.00    +0.182 C 
BRANCH  11  13
ATOM     12  OXT UNL     1       5.685   0.208  -1.498  0.00  0.00    -0.249 OA
ATOM     13  C   UNL     1       4.909   0.092  -0.558  0.00  0.00    +0.325 C 
BRANCH  13  14
ATOM     14  O   UNL     1       3.572  -0.085  -0.723  0.00  0.00    -0.479 OA
ATOM     15  H   UNL     1       3.248  -0.883  -0.253  0.00  0.00    +0.295 HD
ENDBRANCH  13  14
ENDBRANCH  11  13
BRANCH  11  16
ATOM     16  CB  UNL     1       4.728  -1.097   1.695  0.00  0.00    +0.045 C 
BRANCH  16  17
ATOM     17  CG  UNL     1       5.656  -2.306   1.860  0.00  0.00    +0.123 C 
BRANCH  17  19
ATOM     18  OE2 UNL     1       6.246  -2.753   4.182  0.00  0.00    -0.251 OA
ATOM     19  CD  UNL     1       6.519  -2.247   3.103  0.00  0.00    +0.305 C 
BRANCH  19  20
ATOM     20  OE1 UNL     1       7.644  -1.515   2.895  0.00  0.00    -0.481 OA
ATOM     21  HE1 UNL     1       8.304  -1.646   3.609  0.00  0.00    +0.295 HD
ENDBRANCH  19  20
ENDBRANCH  17  19
ENDBRANCH  16  17
ENDBRANCH  11  16
ENDBRANCH   8  11
ENDBRANCH   2   9
BRANCH   1  22
ATOM     22  N   UNL     1       3.588   6.919   4.372  0.00  0.00    -0.327 N 
ATOM     23  C   UNL     1       2.416   7.508   3.757  0.00  0.00    +0.129 C 
BRANCH  22  24
ATOM     24  C   UNL     1       4.245   7.621   5.456  0.00  0.00    +0.161 C 
BRANCH  24  31
ATOM     25  N   UNL     1       4.775   9.694   4.286  0.00  0.00    -0.242 NA
ATOM     26  N   UNL     1       7.495   9.275   4.585  0.00  0.00    -0.232 NA
ATOM     27  N   UNL     1       7.938  11.254   3.468  0.00  0.00    -0.193 NA
ATOM     28  N   UNL     1       6.155  12.630   2.643  0.00  0.00    -0.198 NA
ATOM     29  N   UNL     1       3.914  11.961   2.975  0.00  0.00    -0.341 N 
ATOM     30  N   UNL     1       8.390  13.258   2.334  0.00  0.00    -0.327 N 
ATOM     31  C   UNL     1       5.245   8.606   4.916  0.00  0.00    +0.077 A 
ATOM     32  C   UNL     1       6.589   8.400   5.064  0.00  0.00    +0.138 A 
ATOM     33  C   UNL     1       5.682  10.568   3.809  0.00  0.00    +0.148 A 
ATOM     34  C   UNL     1       7.057  10.369   3.951  0.00  0.00    +0.185 A 
ATOM     35  C   UNL     1       5.302  11.718   3.144  0.00  0.00    +0.149 A 
ATOM     36  C   UNL     1       7.446  12.337   2.839  0.00  0.00    +0.216 A 
ATOM     37  H   UNL     1       3.651  12.803   2.479  0.00  0.00    +0.144 HD
ATOM     38  H   UNL     1       3.289  11.165   2.941  0.00  0.00    +0.144 HD
ATOM     39  H   UNL     1       8.068  14.087   1.855  0.00  0.00    +0.145 HD
ATOM     40  H   UNL     1       9.376  13.077   2.458  0.00  0.00    +0.145 HD
ENDBRANCH  24  31
ENDBRANCH  22  24
ENDBRANCH   1  22
TORSDOF 11
ENDMDL
MODEL 9
REMARK VINA RESULT:    -8.451      1.894      3.919
REMARK INTER + INTRA:         -14.467
REMARK INTER:                 -13.401
REMARK INTRA:                  -1.065
REMARK UNBOUND:                -1.075
REMARK  Name = 126941
REMARK  12 active torsions:
REMARK  status: ('A' for Active; 'I' for Inactive)
REMARK    1  A    between atoms: O_1  and  C_23
REMARK    2  A    between atoms: OE1_4  and  CD_28
REMARK    3  A    between atoms: N_6  and  C_16
REMARK    4  A    between atoms: N_6  and  C_18
REMARK    5  A    between atoms: N_6  and  C_27
REMARK    6  A    between atoms: N_7  and  CA_14
REMARK    7  A    between atoms: CA_14  and  CB_15
REMARK    8  A    between atoms: CA_14  and  C_23
REMARK    9  A    between atoms: CB_15  and  CG_17
REMARK   10  A    between atoms: CG_17  and  CD_28
REMARK   11  A    between atoms: C_18  and  C_26
REMARK   12  A    between atoms: C_19  and  C_20
REMARK                            x       y       z     vdW  Elec       q    Type
REMARK                         _______ _______ _______ _____ _____    ______ ____
ROOT
ATOM      1  C   UNL     1       3.999   5.659   3.860  0.00  0.00    +0.030 A 
ATOM      2  C   UNL     1       5.032   3.205   3.027  0.00  0.00    +0.037 A 
ATOM      3  C   UNL     1       3.559   5.086   2.666  0.00  0.00    +0.024 A 
ATOM      4  C   UNL     1       4.955   5.004   4.637  0.00  0.00    +0.024 A 
ATOM      5  C   UNL     1       4.076   3.858   2.249  0.00  0.00    +0.015 A 
ATOM      6  C   UNL     1       5.471   3.778   4.221  0.00  0.00    +0.015 A 
ENDROOT
BRANCH   2   9
ATOM      7  O   UNL     1       6.520   1.402   3.201  0.00  0.00    -0.270 OA
ATOM      8  N   UNL     1       4.958   1.315   1.489  0.00  0.00    -0.298 N 
ATOM      9  C   ACE A   0       5.582   1.897   2.584  0.00  0.00    +0.245 C 
ATOM     10  H   UNL     1       4.135   1.745   1.080  0.00  0.00    +0.150 HD
BRANCH   8  11
ATOM     11  CA  UNL     1       5.360   0.038   0.956  0.00  0.00    +0.182 C 
BRANCH  11  13
ATOM     12  OXT UNL     1       5.755   0.107  -1.446  0.00  0.00    -0.249 OA
ATOM     13  C   UNL     1       4.974   0.010  -0.508  0.00  0.00    +0.325 C 
BRANCH  13  14
ATOM     14  O   UNL     1       3.639  -0.176  -0.677  0.00  0.00    -0.479 OA
ATOM     15  H   UNL     1       3.422  -0.455  -1.593  0.00  0.00    +0.295 HD
ENDBRANCH  13  14
ENDBRANCH  11  13
BRANCH  11  16
ATOM     16  CB  UNL     1       4.808  -1.142   1.764  0.00  0.00    +0.045 C 
BRANCH  16  17
ATOM     17  CG  UNL     1       5.789  -2.292   2.023  0.00  0.00    +0.123 C 
BRANCH  17  19
ATOM     18  OE2 UNL     1       6.311  -2.494   4.394  0.00  0.00    -0.251 OA
ATOM     19  CD  UNL     1       6.622  -2.114   3.275  0.00  0.00    +0.305 C 
BRANCH  19  20
ATOM     20  OE1 UNL     1       7.767  -1.429   3.020  0.00  0.00    -0.481 OA
ATOM     21  HE1 UNL     1       7.586  -0.511   2.724  0.00  0.00    +0.295 HD
ENDBRANCH  19  20
ENDBRANCH  17  19
ENDBRANCH  16  17
ENDBRANCH  11  16
ENDBRANCH   8  11
ENDBRANCH   2   9
BRANCH   1  22
ATOM     22  N   UNL     1       3.477   6.900   4.280  0.00  0.00    -0.327 N 
ATOM     23  C   UNL     1       2.346   7.490   3.593  0.00  0.00    +0.129 C 
BRANCH  22  24
ATOM     24  C   UNL     1       4.055   7.594   5.414  0.00  0.00    +0.161 C 
BRANCH  24  31
ATOM     25  N   UNL     1       6.360   8.362   5.205  0.00  0.00    -0.242 NA
ATOM     26  N   UNL     1       5.572  10.656   3.873  0.00  0.00    -0.232 NA
ATOM     27  N   UNL     1       7.779  11.334   3.704  0.00  0.00    -0.193 NA
ATOM     28  N   UNL     1       9.553   9.994   4.604  0.00  0.00    -0.198 NA
ATOM     29  N   UNL     1       9.045   7.952   5.678  0.00  0.00    -0.341 N 
ATOM     30  N   UNL     1      10.016  12.024   3.532  0.00  0.00    -0.327 N 
ATOM     31  C   UNL     1       5.065   8.607   4.952  0.00  0.00    +0.077 A 
ATOM     32  C   UNL     1       4.676   9.741   4.292  0.00  0.00    +0.138 A 
ATOM     33  C   UNL     1       7.254   9.277   4.785  0.00  0.00    +0.148 A 
ATOM     34  C   UNL     1       6.870  10.440   4.112  0.00  0.00    +0.185 A 
ATOM     35  C   UNL     1       8.609   9.119   4.997  0.00  0.00    +0.149 A 
ATOM     36  C   UNL     1       9.072  11.069   3.969  0.00  0.00    +0.216 A 
ATOM     37  H   UNL     1      10.040   7.854   5.834  0.00  0.00    +0.144 HD
ATOM     38  H   UNL     1       8.408   7.513   6.332  0.00  0.00    +0.144 HD
ATOM     39  H   UNL     1      10.998  11.869   3.709  0.00  0.00    +0.145 HD
ATOM     40  H   UNL     1       9.697  12.853   3.050  0.00  0.00    +0.145 HD
ENDBRANCH  24  31
ENDBRANCH  22  24
ENDBRANCH   1  22
TORSDOF 11
ENDMDL
MODEL 10
REMARK VINA RESULT:    -8.201      1.881      3.105
REMARK INTER + INTRA:         -14.070
REMARK INTER:                 -13.328
REMARK INTRA:                  -0.741
REMARK UNBOUND:                -1.075
REMARK  Name = 126941
REMARK  12 active torsions:
REMARK  status: ('A' for Active; 'I' for Inactive)
REMARK    1  A    between atoms: O_1  and  C_23
REMARK    2  A    between atoms: OE1_4  and  CD_28
REMARK    3  A    between atoms: N_6  and  C_16
REMARK    4  A    between atoms: N_6  and  C_18
REMARK    5  A    between atoms: N_6  and  C_27
REMARK    6  A    between atoms: N_7  and  CA_14
REMARK    7  A    between atoms: CA_14  and  CB_15
REMARK    8  A    between atoms: CA_14  and  C_23
REMARK    9  A    between atoms: CB_15  and  CG_17
REMARK   10  A    between atoms: CG_17  and  CD_28
REMARK   11  A    between atoms: C_18  and  C_26
REMARK   12  A    between atoms: C_19  and  C_20
REMARK                            x       y       z     vdW  Elec       q    Type
REMARK                         _______ _______ _______ _____ _____    ______ ____
ROOT
ATOM      1  C   UNL     1       4.099   5.189   3.641  0.00  0.00    +0.030 A 
ATOM      2  C   UNL     1       5.227   2.732   2.953  0.00  0.00    +0.037 A 
ATOM      3  C   UNL     1       3.706   4.545   2.467  0.00  0.00    +0.024 A 
ATOM      4  C   UNL     1       5.056   4.603   4.470  0.00  0.00    +0.024 A 
ATOM      5  C   UNL     1       4.270   3.316   2.123  0.00  0.00    +0.015 A 
ATOM      6  C   UNL     1       5.619   3.375   4.126  0.00  0.00    +0.015 A 
ENDROOT
BRANCH   2   9
ATOM      7  O   UNL     1       6.466   0.799   3.429  0.00  0.00    -0.270 OA
ATOM      8  N   UNL     1       5.594   0.988   1.288  0.00  0.00    -0.298 N 
ATOM      9  C   ACE A   0       5.828   1.423   2.586  0.00  0.00    +0.245 C 
ATOM     10  H   UNL     1       4.987   1.520   0.672  0.00  0.00    +0.150 HD
BRANCH   8  11
ATOM     11  CA  UNL     1       6.089  -0.270   0.792  0.00  0.00    +0.182 C 
BRANCH  11  13
ATOM     12  OXT UNL     1       5.975   0.685  -1.446  0.00  0.00    -0.249 OA
ATOM     13  C   UNL     1       6.526  -0.057  -0.643  0.00  0.00    +0.325 C 
BRANCH  13  14
ATOM     14  O   UNL     1       7.647  -0.764  -0.942  0.00  0.00    -0.479 OA
ATOM     15  H   UNL     1       8.462  -0.246  -0.772  0.00  0.00    +0.295 HD
ENDBRANCH  13  14
ENDBRANCH  11  13
BRANCH  11  16
ATOM     16  CB  UNL     1       5.083  -1.414   0.968  0.00  0.00    +0.045 C 
BRANCH  16  17
ATOM     17  CG  UNL     1       5.679  -2.775   1.348  0.00  0.00    +0.123 C 
BRANCH  17  19
ATOM     18  OE2 UNL     1       5.819  -2.769   3.781  0.00  0.00    -0.251 OA
ATOM     19  CD  UNL     1       6.376  -2.781   2.693  0.00  0.00    +0.305 C 
BRANCH  19  20
ATOM     20  OE1 UNL     1       7.727  -2.761   2.555  0.00  0.00    -0.481 OA
ATOM     21  HE1 UNL     1       8.006  -3.018   1.650  0.00  0.00    +0.295 HD
ENDBRANCH  19  20
ENDBRANCH  17  19
ENDBRANCH  16  17
ENDBRANCH  11  16
ENDBRANCH   8  11
ENDBRANCH   2   9
BRANCH   1  22
ATOM     22  N   UNL     1       3.529   6.431   3.988  0.00  0.00    -0.327 N 
ATOM     23  C   UNL     1       2.724   7.161   3.030  0.00  0.00    +0.129 C 
BRANCH  22  24
ATOM     24  C   UNL     1       3.728   6.986   5.312  0.00  0.00    +0.161 C 
BRANCH  24  31
ATOM     25  N   UNL     1       4.706   9.167   4.827  0.00  0.00    -0.242 NA
ATOM     26  N   UNL     1       2.411  10.479   5.646  0.00  0.00    -0.232 NA
ATOM     27  N   UNL     1       3.390  12.522   5.168  0.00  0.00    -0.193 NA
ATOM     28  N   UNL     1       5.623  12.646   4.302  0.00  0.00    -0.198 NA
ATOM     29  N   UNL     1       6.844  10.658   3.930  0.00  0.00    -0.341 N 
ATOM     30  N   UNL     1       4.381  14.594   4.684  0.00  0.00    -0.327 N 
ATOM     31  C   UNL     1       3.638   8.487   5.273  0.00  0.00    +0.077 A 
ATOM     32  C   UNL     1       2.504   9.136   5.677  0.00  0.00    +0.138 A 
ATOM     33  C   UNL     1       4.611  10.510   4.797  0.00  0.00    +0.148 A 
ATOM     34  C   UNL     1       3.459  11.186   5.208  0.00  0.00    +0.185 A 
ATOM     35  C   UNL     1       5.653  11.302   4.357  0.00  0.00    +0.149 A 
ATOM     36  C   UNL     1       4.471  13.185   4.718  0.00  0.00    +0.216 A 
ATOM     37  H   UNL     1       7.602  11.251   3.619  0.00  0.00    +0.144 HD
ATOM     38  H   UNL     1       7.070   9.755   4.330  0.00  0.00    +0.144 HD
ATOM     39  H   UNL     1       5.168  15.135   4.354  0.00  0.00    +0.145 HD
ATOM     40  H   UNL     1       3.530  15.045   4.990  0.00  0.00    +0.145 HD
ENDBRANCH  24  31
ENDBRANCH  22  24
ENDBRANCH   1  22
TORSDOF 11
ENDMDL
