MODEL 1
REMARK VINA RESULT:    -7.152      0.000      0.000
REMARK INTER + INTRA:          -9.703
REMARK INTER:                  -9.243
REMARK INTRA:                  -0.461
REMARK UNBOUND:                -0.461
REMARK  Name = 5578
REMARK  8 active torsions:
REMARK  status: ('A' for Active; 'I' for Inactive)
REMARK    1  A    between atoms: O_1  and  C_13
REMARK    2  A    between atoms: O_1  and  C_19
REMARK    3  A    between atoms: O_2  and  C_14
REMARK    4  A    between atoms: O_2  and  C_20
REMARK    5  A    between atoms: O_3  and  C_15
REMARK    6  A    between atoms: O_3  and  C_21
REMARK    7  A    between atoms: C_8  and  C_9
REMARK    8  A    between atoms: C_8  and  C_10
REMARK                            x       y       z     vdW  Elec       q    Type
REMARK                         _______ _______ _______ _____ _____    ______ ____
ROOT
ATOM      1  C   UNL     1       3.136   3.796   3.715  0.00  0.00    +0.075 C 
ENDROOT
BRANCH   1   6
ATOM      2  N   UNL     1       3.891   1.677   0.678  0.00  0.00    -0.200 NA
ATOM      3  N   UNL     1       4.316   3.991   0.154  0.00  0.00    -0.223 NA
ATOM      4  N   UNL     1       3.122   1.062   2.835  0.00  0.00    -0.343 N 
ATOM      5  N   UNL     1       4.652   2.311  -1.449  0.00  0.00    -0.327 N 
ATOM      6  C   UNL     1       3.542   3.367   2.319  0.00  0.00    +0.015 A 
ATOM      7  C   UNL     1       3.530   2.063   1.919  0.00  0.00    +0.125 A 
ATOM      8  C   UNL     1       3.941   4.306   1.412  0.00  0.00    +0.121 A 
ATOM      9  C   UNL     1       4.268   2.678  -0.142  0.00  0.00    +0.214 A 
ATOM     10  H   UNL     1       3.362   1.164   3.812  0.00  0.00    +0.144 HD
ATOM     11  H   UNL     1       3.105   0.116   2.473  0.00  0.00    +0.144 HD
ATOM     12  H   UNL     1       4.944   3.027  -2.100  0.00  0.00    +0.145 HD
ATOM     13  H   UNL     1       4.634   1.338  -1.718  0.00  0.00    +0.145 HD
ENDBRANCH   1   6
BRANCH   1  14
ATOM     14  C   UNL     1       3.962   4.906   4.272  0.00  0.00    -0.036 A 
ATOM     15  C   UNL     1       5.286   4.672   4.642  0.00  0.00    +0.053 A 
ATOM     16  C   UNL     1       3.410   6.178   4.422  0.00  0.00    +0.053 A 
ATOM     17  C   UNL     1       4.181   7.216   4.943  0.00  0.00    +0.165 A 
ATOM     18  C   UNL     1       6.058   5.711   5.163  0.00  0.00    +0.165 A 
ATOM     19  C   UNL     1       5.505   6.982   5.314  0.00  0.00    +0.204 A 
BRANCH  17  20
ATOM     20  O   UNL     1       3.630   8.454   5.085  0.00  0.00    -0.491 OA
ATOM     21  C   UNL     1       3.403   9.203   3.892  0.00  0.00    +0.277 C 
ENDBRANCH  17  20
BRANCH  18  22
ATOM     22  O   UNL     1       7.350   5.468   5.520  0.00  0.00    -0.491 OA
ATOM     23  C   UNL     1       7.742   4.103   5.648  0.00  0.00    +0.277 C 
ENDBRANCH  18  22
BRANCH  19  24
ATOM     24  O   UNL     1       6.261   7.997   5.823  0.00  0.00    -0.488 OA
ATOM     25  C   UNL     1       7.014   8.772   4.894  0.00  0.00    +0.277 C 
ENDBRANCH  19  24
ENDBRANCH   1  14
TORSDOF 5
ENDMDL
MODEL 2
REMARK VINA RESULT:    -7.120      0.163      2.798
REMARK INTER + INTRA:          -9.662
REMARK INTER:                  -9.208
REMARK INTRA:                  -0.453
REMARK UNBOUND:                -0.461
REMARK  Name = 5578
REMARK  8 active torsions:
REMARK  status: ('A' for Active; 'I' for Inactive)
REMARK    1  A    between atoms: O_1  and  C_13
REMARK    2  A    between atoms: O_1  and  C_19
REMARK    3  A    between atoms: O_2  and  C_14
REMARK    4  A    between atoms: O_2  and  C_20
REMARK    5  A    between atoms: O_3  and  C_15
REMARK    6  A    between atoms: O_3  and  C_21
REMARK    7  A    between atoms: C_8  and  C_9
REMARK    8  A    between atoms: C_8  and  C_10
REMARK                            x       y       z     vdW  Elec       q    Type
REMARK                         _______ _______ _______ _____ _____    ______ ____
ROOT
ATOM      1  C   UNL     1       3.116   3.806   3.729  0.00  0.00    +0.075 C 
ENDROOT
BRANCH   1   6
ATOM      2  N   UNL     1       3.871   1.696   0.686  0.00  0.00    -0.200 NA
ATOM      3  N   UNL     1       4.314   4.009   0.175  0.00  0.00    -0.223 NA
ATOM      4  N   UNL     1       3.087   1.076   2.837  0.00  0.00    -0.343 N 
ATOM      5  N   UNL     1       4.647   2.335  -1.434  0.00  0.00    -0.327 N 
ATOM      6  C   UNL     1       3.526   3.381   2.334  0.00  0.00    +0.015 A 
ATOM      7  C   UNL     1       3.506   2.078   1.927  0.00  0.00    +0.125 A 
ATOM      8  C   UNL     1       3.935   4.321   1.432  0.00  0.00    +0.121 A 
ATOM      9  C   UNL     1       4.259   2.698  -0.127  0.00  0.00    +0.214 A 
ATOM     10  H   UNL     1       3.323   1.172   3.815  0.00  0.00    +0.144 HD
ATOM     11  H   UNL     1       3.066   0.132   2.470  0.00  0.00    +0.144 HD
ATOM     12  H   UNL     1       4.947   3.051  -2.081  0.00  0.00    +0.145 HD
ATOM     13  H   UNL     1       4.623   1.362  -1.708  0.00  0.00    +0.145 HD
ENDBRANCH   1   6
BRANCH   1  14
ATOM     14  C   UNL     1       3.954   4.899   4.300  0.00  0.00    -0.036 A 
ATOM     15  C   UNL     1       3.400   6.159   4.521  0.00  0.00    +0.053 A 
ATOM     16  C   UNL     1       5.293   4.661   4.611  0.00  0.00    +0.053 A 
ATOM     17  C   UNL     1       6.078   5.683   5.144  0.00  0.00    +0.165 A 
ATOM     18  C   UNL     1       4.185   7.182   5.054  0.00  0.00    +0.165 A 
ATOM     19  C   UNL     1       5.524   6.944   5.365  0.00  0.00    +0.204 A 
BRANCH  17  20
ATOM     20  O   UNL     1       7.384   5.438   5.445  0.00  0.00    -0.491 OA
ATOM     21  C   UNL     1       7.909   4.168   5.061  0.00  0.00    +0.277 C 
ENDBRANCH  17  20
BRANCH  18  22
ATOM     22  O   UNL     1       3.631   8.409   5.266  0.00  0.00    -0.491 OA
ATOM     23  C   UNL     1       3.221   9.142   4.114  0.00  0.00    +0.277 C 
ENDBRANCH  18  22
BRANCH  19  24
ATOM     24  O   UNL     1       6.290   7.945   5.887  0.00  0.00    -0.488 OA
ATOM     25  C   UNL     1       7.002   8.763   4.963  0.00  0.00    +0.277 C 
ENDBRANCH  19  24
ENDBRANCH   1  14
TORSDOF 5
ENDMDL
MODEL 3
REMARK VINA RESULT:    -7.054      2.010      4.157
REMARK INTER + INTRA:          -9.576
REMARK INTER:                  -9.323
REMARK INTRA:                  -0.253
REMARK UNBOUND:                -0.461
REMARK  Name = 5578
REMARK  8 active torsions:
REMARK  status: ('A' for Active; 'I' for Inactive)
REMARK    1  A    between atoms: O_1  and  C_13
REMARK    2  A    between atoms: O_1  and  C_19
REMARK    3  A    between atoms: O_2  and  C_14
REMARK    4  A    between atoms: O_2  and  C_20
REMARK    5  A    between atoms: O_3  and  C_15
REMARK    6  A    between atoms: O_3  and  C_21
REMARK    7  A    between atoms: C_8  and  C_9
REMARK    8  A    between atoms: C_8  and  C_10
REMARK                            x       y       z     vdW  Elec       q    Type
REMARK                         _______ _______ _______ _____ _____    ______ ____
ROOT
ATOM      1  C   UNL     1       3.930   3.012   0.798  0.00  0.00    +0.075 C 
ENDROOT
BRANCH   1   6
ATOM      2  N   UNL     1       6.544   1.254  -1.289  0.00  0.00    -0.200 NA
ATOM      3  N   UNL     1       5.764  -0.245   0.429  0.00  0.00    -0.223 NA
ATOM      4  N   UNL     1       5.660   3.449  -1.451  0.00  0.00    -0.343 N 
ATOM      5  N   UNL     1       7.401  -0.923  -1.109  0.00  0.00    -0.327 N 
ATOM      6  C   UNL     1       4.881   1.961   0.262  0.00  0.00    +0.015 A 
ATOM      7  C   UNL     1       5.696   2.186  -0.809  0.00  0.00    +0.125 A 
ATOM      8  C   UNL     1       4.940   0.734   0.857  0.00  0.00    +0.121 A 
ATOM      9  C   UNL     1       6.526   0.077  -0.633  0.00  0.00    +0.214 A 
ATOM     10  H   UNL     1       4.777   3.935  -1.528  0.00  0.00    +0.144 HD
ATOM     11  H   UNL     1       6.308   3.567  -2.221  0.00  0.00    +0.144 HD
ATOM     12  H   UNL     1       7.423  -1.823  -0.649  0.00  0.00    +0.145 HD
ATOM     13  H   UNL     1       7.993  -0.728  -1.904  0.00  0.00    +0.145 HD
ENDBRANCH   1   6
BRANCH   1  14
ATOM     14  C   UNL     1       4.392   3.658   2.061  0.00  0.00    -0.036 A 
ATOM     15  C   UNL     1       3.592   4.612   2.688  0.00  0.00    +0.053 A 
ATOM     16  C   UNL     1       5.624   3.309   2.613  0.00  0.00    +0.053 A 
ATOM     17  C   UNL     1       6.057   3.913   3.793  0.00  0.00    +0.165 A 
ATOM     18  C   UNL     1       4.025   5.217   3.869  0.00  0.00    +0.165 A 
ATOM     19  C   UNL     1       5.257   4.868   4.420  0.00  0.00    +0.204 A 
BRANCH  17  20
ATOM     20  O   UNL     1       7.263   3.563   4.322  0.00  0.00    -0.491 OA
ATOM     21  C   UNL     1       7.438   2.194   4.682  0.00  0.00    +0.277 C 
ENDBRANCH  17  20
BRANCH  18  22
ATOM     22  O   UNL     1       3.233   6.147   4.472  0.00  0.00    -0.491 OA
ATOM     23  C   UNL     1       3.075   7.397   3.804  0.00  0.00    +0.277 C 
ENDBRANCH  18  22
BRANCH  19  24
ATOM     24  O   UNL     1       5.679   5.459   5.575  0.00  0.00    -0.488 OA
ATOM     25  C   UNL     1       6.409   6.677   5.448  0.00  0.00    +0.277 C 
ENDBRANCH  19  24
ENDBRANCH   1  14
TORSDOF 5
ENDMDL
MODEL 4
REMARK VINA RESULT:    -7.046      1.680      3.273
REMARK INTER + INTRA:          -9.566
REMARK INTER:                  -8.962
REMARK INTRA:                  -0.604
REMARK UNBOUND:                -0.461
REMARK  Name = 5578
REMARK  8 active torsions:
REMARK  status: ('A' for Active; 'I' for Inactive)
REMARK    1  A    between atoms: O_1  and  C_13
REMARK    2  A    between atoms: O_1  and  C_19
REMARK    3  A    between atoms: O_2  and  C_14
REMARK    4  A    between atoms: O_2  and  C_20
REMARK    5  A    between atoms: O_3  and  C_15
REMARK    6  A    between atoms: O_3  and  C_21
REMARK    7  A    between atoms: C_8  and  C_9
REMARK    8  A    between atoms: C_8  and  C_10
REMARK                            x       y       z     vdW  Elec       q    Type
REMARK                         _______ _______ _______ _____ _____    ______ ____
ROOT
ATOM      1  C   UNL     1       3.220   4.543   3.835  0.00  0.00    +0.075 C 
ENDROOT
BRANCH   1   6
ATOM      2  N   UNL     1       5.758   2.391   2.043  0.00  0.00    -0.200 NA
ATOM      3  N   UNL     1       4.568   3.725   0.426  0.00  0.00    -0.223 NA
ATOM      4  N   UNL     1       5.243   2.571   4.352  0.00  0.00    -0.343 N 
ATOM      5  N   UNL     1       6.249   2.232  -0.245  0.00  0.00    -0.327 N 
ATOM      6  C   UNL     1       4.055   3.901   2.746  0.00  0.00    +0.015 A 
ATOM      7  C   UNL     1       5.013   2.965   3.010  0.00  0.00    +0.125 A 
ATOM      8  C   UNL     1       3.859   4.258   1.443  0.00  0.00    +0.121 A 
ATOM      9  C   UNL     1       5.488   2.812   0.792  0.00  0.00    +0.214 A 
ATOM     10  H   UNL     1       5.164   3.261   5.086  0.00  0.00    +0.144 HD
ATOM     11  H   UNL     1       5.945   1.853   4.483  0.00  0.00    +0.144 HD
ATOM     12  H   UNL     1       6.084   2.516  -1.201  0.00  0.00    +0.145 HD
ATOM     13  H   UNL     1       6.952   1.542  -0.020  0.00  0.00    +0.145 HD
ENDBRANCH   1   6
BRANCH   1  14
ATOM     14  C   UNL     1       3.598   5.954   4.135  0.00  0.00    -0.036 A 
ATOM     15  C   UNL     1       2.861   7.004   3.591  0.00  0.00    +0.053 A 
ATOM     16  C   UNL     1       4.691   6.222   4.960  0.00  0.00    +0.053 A 
ATOM     17  C   UNL     1       5.046   7.541   5.240  0.00  0.00    +0.165 A 
ATOM     18  C   UNL     1       3.216   8.324   3.872  0.00  0.00    +0.165 A 
ATOM     19  C   UNL     1       4.308   8.592   4.696  0.00  0.00    +0.204 A 
BRANCH  17  20
ATOM     20  O   UNL     1       6.115   7.790   6.047  0.00  0.00    -0.491 OA
ATOM     21  C   UNL     1       7.410   7.672   5.461  0.00  0.00    +0.277 C 
ENDBRANCH  17  20
BRANCH  18  22
ATOM     22  O   UNL     1       2.485   9.341   3.334  0.00  0.00    -0.491 OA
ATOM     23  C   UNL     1       1.079   9.137   3.216  0.00  0.00    +0.277 C 
ENDBRANCH  18  22
BRANCH  19  24
ATOM     24  O   UNL     1       4.654   9.883   4.970  0.00  0.00    -0.488 OA
ATOM     25  C   UNL     1       5.521  10.531   4.043  0.00  0.00    +0.277 C 
ENDBRANCH  19  24
ENDBRANCH   1  14
TORSDOF 5
ENDMDL
MODEL 5
REMARK VINA RESULT:    -6.913      3.994      6.090
REMARK INTER + INTRA:          -9.394
REMARK INTER:                  -8.842
REMARK INTRA:                  -0.552
REMARK UNBOUND:                -0.461
REMARK  Name = 5578
REMARK  8 active torsions:
REMARK  status: ('A' for Active; 'I' for Inactive)
REMARK    1  A    between atoms: O_1  and  C_13
REMARK    2  A    between atoms: O_1  and  C_19
REMARK    3  A    between atoms: O_2  and  C_14
REMARK    4  A    between atoms: O_2  and  C_20
REMARK    5  A    between atoms: O_3  and  C_15
REMARK    6  A    between atoms: O_3  and  C_21
REMARK    7  A    between atoms: C_8  and  C_9
REMARK    8  A    between atoms: C_8  and  C_10
REMARK                            x       y       z     vdW  Elec       q    Type
REMARK                         _______ _______ _______ _____ _____    ______ ____
ROOT
ATOM      1  C   UNL     1       3.536   6.852   5.327  0.00  0.00    +0.075 C 
ENDROOT
BRANCH   1   6
ATOM      2  N   UNL     1       4.007   9.959   3.228  0.00  0.00    -0.200 NA
ATOM      3  N   UNL     1       1.879   8.960   2.696  0.00  0.00    -0.223 NA
ATOM      4  N   UNL     1       5.420   8.966   4.854  0.00  0.00    -0.343 N 
ATOM      5  N   UNL     1       2.591  10.922   1.624  0.00  0.00    -0.327 N 
ATOM      6  C   UNL     1       3.303   7.967   4.328  0.00  0.00    +0.015 A 
ATOM      7  C   UNL     1       4.210   8.965   4.117  0.00  0.00    +0.125 A 
ATOM      8  C   UNL     1       2.148   7.996   3.601  0.00  0.00    +0.121 A 
ATOM      9  C   UNL     1       2.837   9.897   2.563  0.00  0.00    +0.214 A 
ATOM     10  H   UNL     1       5.410   8.651   5.814  0.00  0.00    +0.144 HD
ATOM     11  H   UNL     1       6.067   9.715   4.633  0.00  0.00    +0.144 HD
ATOM     12  H   UNL     1       1.726  10.919   1.101  0.00  0.00    +0.145 HD
ATOM     13  H   UNL     1       3.280  11.649   1.489  0.00  0.00    +0.145 HD
ENDBRANCH   1   6
BRANCH   1  14
ATOM     14  C   UNL     1       4.017   5.580   4.713  0.00  0.00    -0.036 A 
ATOM     15  C   UNL     1       3.106   4.696   4.137  0.00  0.00    +0.053 A 
ATOM     16  C   UNL     1       5.378   5.276   4.716  0.00  0.00    +0.053 A 
ATOM     17  C   UNL     1       5.828   4.087   4.143  0.00  0.00    +0.165 A 
ATOM     18  C   UNL     1       3.556   3.506   3.564  0.00  0.00    +0.165 A 
ATOM     19  C   UNL     1       4.917   3.202   3.567  0.00  0.00    +0.204 A 
BRANCH  17  20
ATOM     20  O   UNL     1       7.161   3.802   4.153  0.00  0.00    -0.491 OA
ATOM     21  C   UNL     1       7.744   3.476   5.413  0.00  0.00    +0.277 C 
ENDBRANCH  17  20
BRANCH  18  22
ATOM     22  O   UNL     1       2.655   2.651   3.004  0.00  0.00    -0.491 OA
ATOM     23  C   UNL     1       1.700   2.053   3.878  0.00  0.00    +0.277 C 
ENDBRANCH  18  22
BRANCH  19  24
ATOM     24  O   UNL     1       5.357   2.039   3.006  0.00  0.00    -0.488 OA
ATOM     25  C   UNL     1       5.447   0.902   3.861  0.00  0.00    +0.277 C 
ENDBRANCH  19  24
ENDBRANCH   1  14
TORSDOF 5
ENDMDL
MODEL 6
REMARK VINA RESULT:    -6.900      3.986      5.725
REMARK INTER + INTRA:          -9.378
REMARK INTER:                  -8.829
REMARK INTRA:                  -0.549
REMARK UNBOUND:                -0.461
REMARK  Name = 5578
REMARK  8 active torsions:
REMARK  status: ('A' for Active; 'I' for Inactive)
REMARK    1  A    between atoms: O_1  and  C_13
REMARK    2  A    between atoms: O_1  and  C_19
REMARK    3  A    between atoms: O_2  and  C_14
REMARK    4  A    between atoms: O_2  and  C_20
REMARK    5  A    between atoms: O_3  and  C_15
REMARK    6  A    between atoms: O_3  and  C_21
REMARK    7  A    between atoms: C_8  and  C_9
REMARK    8  A    between atoms: C_8  and  C_10
REMARK                            x       y       z     vdW  Elec       q    Type
REMARK                         _______ _______ _______ _____ _____    ______ ____
ROOT
ATOM      1  C   UNL     1       3.523   6.863   5.311  0.00  0.00    +0.075 C 
ENDROOT
BRANCH   1   6
ATOM      2  N   UNL     1       3.995   9.938   3.165  0.00  0.00    -0.200 NA
ATOM      3  N   UNL     1       1.849   8.955   2.679  0.00  0.00    -0.223 NA
ATOM      4  N   UNL     1       5.423   8.951   4.782  0.00  0.00    -0.343 N 
ATOM      5  N   UNL     1       2.565  10.896   1.571  0.00  0.00    -0.327 N 
ATOM      6  C   UNL     1       3.287   7.968   4.301  0.00  0.00    +0.015 A 
ATOM      7  C   UNL     1       4.201   8.952   4.064  0.00  0.00    +0.125 A 
ATOM      8  C   UNL     1       2.121   7.999   3.592  0.00  0.00    +0.121 A 
ATOM      9  C   UNL     1       2.815   9.880   2.519  0.00  0.00    +0.214 A 
ATOM     10  H   UNL     1       5.423   8.647   5.747  0.00  0.00    +0.144 HD
ATOM     11  H   UNL     1       6.073   9.689   4.542  0.00  0.00    +0.144 HD
ATOM     12  H   UNL     1       1.693  10.895   1.061  0.00  0.00    +0.145 HD
ATOM     13  H   UNL     1       3.260  11.613   1.416  0.00  0.00    +0.145 HD
ENDBRANCH   1   6
BRANCH   1  14
ATOM     14  C   UNL     1       4.032   5.595   4.713  0.00  0.00    -0.036 A 
ATOM     15  C   UNL     1       5.395   5.305   4.747  0.00  0.00    +0.053 A 
ATOM     16  C   UNL     1       3.143   4.699   4.118  0.00  0.00    +0.053 A 
ATOM     17  C   UNL     1       3.618   3.513   3.558  0.00  0.00    +0.165 A 
ATOM     18  C   UNL     1       5.870   4.119   4.187  0.00  0.00    +0.165 A 
ATOM     19  C   UNL     1       4.982   3.224   3.592  0.00  0.00    +0.204 A 
BRANCH  17  20
ATOM     20  O   UNL     1       2.740   2.646   2.980  0.00  0.00    -0.491 OA
ATOM     21  C   UNL     1       1.752   2.064   3.829  0.00  0.00    +0.277 C 
ENDBRANCH  17  20
BRANCH  18  22
ATOM     22  O   UNL     1       7.205   3.848   4.229  0.00  0.00    -0.491 OA
ATOM     23  C   UNL     1       7.810   3.767   5.517  0.00  0.00    +0.277 C 
ENDBRANCH  18  22
BRANCH  19  24
ATOM     24  O   UNL     1       5.447   2.064   3.045  0.00  0.00    -0.488 OA
ATOM     25  C   UNL     1       5.522   0.928   3.903  0.00  0.00    +0.277 C 
ENDBRANCH  19  24
ENDBRANCH   1  14
TORSDOF 5
ENDMDL
MODEL 7
REMARK VINA RESULT:    -6.869      2.329      3.611
REMARK INTER + INTRA:          -9.337
REMARK INTER:                  -9.045
REMARK INTRA:                  -0.292
REMARK UNBOUND:                -0.461
REMARK  Name = 5578
REMARK  8 active torsions:
REMARK  status: ('A' for Active; 'I' for Inactive)
REMARK    1  A    between atoms: O_1  and  C_13
REMARK    2  A    between atoms: O_1  and  C_19
REMARK    3  A    between atoms: O_2  and  C_14
REMARK    4  A    between atoms: O_2  and  C_20
REMARK    5  A    between atoms: O_3  and  C_15
REMARK    6  A    between atoms: O_3  and  C_21
REMARK    7  A    between atoms: C_8  and  C_9
REMARK    8  A    between atoms: C_8  and  C_10
REMARK                            x       y       z     vdW  Elec       q    Type
REMARK                         _______ _______ _______ _____ _____    ______ ____
ROOT
ATOM      1  C   UNL     1       4.286   1.007   2.735  0.00  0.00    +0.075 C 
ENDROOT
BRANCH   1   6
ATOM      2  N   UNL     1       4.353   1.066  -1.043  0.00  0.00    -0.200 NA
ATOM      3  N   UNL     1       4.207   3.326  -0.219  0.00  0.00    -0.223 NA
ATOM      4  N   UNL     1       4.431  -0.756   0.473  0.00  0.00    -0.343 N 
ATOM      5  N   UNL     1       4.275   2.885  -2.523  0.00  0.00    -0.327 N 
ATOM      6  C   UNL     1       4.285   1.492   1.299  0.00  0.00    +0.015 A 
ATOM      7  C   UNL     1       4.355   0.639   0.236  0.00  0.00    +0.125 A 
ATOM      8  C   UNL     1       4.212   2.829   1.035  0.00  0.00    +0.121 A 
ATOM      9  C   UNL     1       4.279   2.402  -1.197  0.00  0.00    +0.214 A 
ATOM     10  H   UNL     1       4.953  -1.090   1.272  0.00  0.00    +0.144 HD
ATOM     11  H   UNL     1       4.451  -1.341  -0.354  0.00  0.00    +0.144 HD
ATOM     12  H   UNL     1       4.222   3.881  -2.689  0.00  0.00    +0.145 HD
ATOM     13  H   UNL     1       4.329   2.230  -3.290  0.00  0.00    +0.145 HD
ENDBRANCH   1   6
BRANCH   1  14
ATOM     14  C   UNL     1       5.343   1.631   3.583  0.00  0.00    -0.036 A 
ATOM     15  C   UNL     1       6.572   0.995   3.746  0.00  0.00    +0.053 A 
ATOM     16  C   UNL     1       5.100   2.852   4.213  0.00  0.00    +0.053 A 
ATOM     17  C   UNL     1       6.088   3.436   5.006  0.00  0.00    +0.165 A 
ATOM     18  C   UNL     1       7.561   1.579   4.539  0.00  0.00    +0.165 A 
ATOM     19  C   UNL     1       7.317   2.799   5.169  0.00  0.00    +0.204 A 
BRANCH  17  20
ATOM     20  O   UNL     1       5.838   4.628   5.616  0.00  0.00    -0.491 OA
ATOM     21  C   UNL     1       5.049   5.572   4.895  0.00  0.00    +0.277 C 
ENDBRANCH  17  20
BRANCH  18  22
ATOM     22  O   UNL     1       8.757   0.946   4.689  0.00  0.00    -0.491 OA
ATOM     23  C   UNL     1       8.761  -0.474   4.558  0.00  0.00    +0.277 C 
ENDBRANCH  18  22
BRANCH  19  24
ATOM     24  O   UNL     1       8.284   3.369   5.945  0.00  0.00    -0.488 OA
ATOM     25  C   UNL     1       9.034   4.434   5.366  0.00  0.00    +0.277 C 
ENDBRANCH  19  24
ENDBRANCH   1  14
TORSDOF 5
ENDMDL
MODEL 8
REMARK VINA RESULT:    -6.766      3.791      6.390
REMARK INTER + INTRA:          -9.205
REMARK INTER:                  -8.655
REMARK INTRA:                  -0.550
REMARK UNBOUND:                -0.461
REMARK  Name = 5578
REMARK  8 active torsions:
REMARK  status: ('A' for Active; 'I' for Inactive)
REMARK    1  A    between atoms: O_1  and  C_13
REMARK    2  A    between atoms: O_1  and  C_19
REMARK    3  A    between atoms: O_2  and  C_14
REMARK    4  A    between atoms: O_2  and  C_20
REMARK    5  A    between atoms: O_3  and  C_15
REMARK    6  A    between atoms: O_3  and  C_21
REMARK    7  A    between atoms: C_8  and  C_9
REMARK    8  A    between atoms: C_8  and  C_10
REMARK                            x       y       z     vdW  Elec       q    Type
REMARK                         _______ _______ _______ _____ _____    ______ ____
ROOT
ATOM      1  C   UNL     1       3.573   5.593   4.858  0.00  0.00    +0.075 C 
ENDROOT
BRANCH   1   6
ATOM      2  N   UNL     1       4.038   9.214   3.882  0.00  0.00    -0.200 NA
ATOM      3  N   UNL     1       5.922   8.503   5.205  0.00  0.00    -0.223 NA
ATOM      4  N   UNL     1       2.279   7.699   3.395  0.00  0.00    -0.343 N 
ATOM      5  N   UNL     1       5.789  10.694   4.377  0.00  0.00    -0.327 N 
ATOM      6  C   UNL     1       4.153   6.985   4.713  0.00  0.00    +0.015 A 
ATOM      7  C   UNL     1       3.524   7.974   4.013  0.00  0.00    +0.125 A 
ATOM      8  C   UNL     1       5.351   7.284   5.296  0.00  0.00    +0.121 A 
ATOM      9  C   UNL     1       5.222   9.407   4.493  0.00  0.00    +0.214 A 
ATOM     10  H   UNL     1       2.122   6.783   2.997  0.00  0.00    +0.144 HD
ATOM     11  H   UNL     1       1.847   8.479   2.914  0.00  0.00    +0.144 HD
ATOM     12  H   UNL     1       6.678  10.887   4.818  0.00  0.00    +0.145 HD
ATOM     13  H   UNL     1       5.302  11.407   3.852  0.00  0.00    +0.145 HD
ENDBRANCH   1   6
BRANCH   1  14
ATOM     14  C   UNL     1       4.189   4.583   3.950  0.00  0.00    -0.036 A 
ATOM     15  C   UNL     1       3.785   4.505   2.617  0.00  0.00    +0.053 A 
ATOM     16  C   UNL     1       5.170   3.717   4.433  0.00  0.00    +0.053 A 
ATOM     17  C   UNL     1       5.746   2.772   3.585  0.00  0.00    +0.165 A 
ATOM     18  C   UNL     1       4.362   3.560   1.768  0.00  0.00    +0.165 A 
ATOM     19  C   UNL     1       5.342   2.694   2.253  0.00  0.00    +0.204 A 
BRANCH  17  20
ATOM     20  O   UNL     1       6.703   1.932   4.070  0.00  0.00    -0.491 OA
ATOM     21  C   UNL     1       7.693   2.502   4.923  0.00  0.00    +0.277 C 
ENDBRANCH  17  20
BRANCH  18  22
ATOM     22  O   UNL     1       3.958   3.495   0.469  0.00  0.00    -0.491 OA
ATOM     23  C   UNL     1       4.663   4.304  -0.470  0.00  0.00    +0.277 C 
ENDBRANCH  18  22
BRANCH  19  24
ATOM     24  O   UNL     1       5.905   1.770   1.421  0.00  0.00    -0.488 OA
ATOM     25  C   UNL     1       5.254   0.506   1.323  0.00  0.00    +0.277 C 
ENDBRANCH  19  24
ENDBRANCH   1  14
TORSDOF 5
ENDMDL
MODEL 9
REMARK VINA RESULT:    -6.747      4.094      6.394
REMARK INTER + INTRA:          -9.180
REMARK INTER:                  -8.709
REMARK INTRA:                  -0.471
REMARK UNBOUND:                -0.461
REMARK  Name = 5578
REMARK  8 active torsions:
REMARK  status: ('A' for Active; 'I' for Inactive)
REMARK    1  A    between atoms: O_1  and  C_13
REMARK    2  A    between atoms: O_1  and  C_19
REMARK    3  A    between atoms: O_2  and  C_14
REMARK    4  A    between atoms: O_2  and  C_20
REMARK    5  A    between atoms: O_3  and  C_15
REMARK    6  A    between atoms: O_3  and  C_21
REMARK    7  A    between atoms: C_8  and  C_9
REMARK    8  A    between atoms: C_8  and  C_10
REMARK                            x       y       z     vdW  Elec       q    Type
REMARK                         _______ _______ _______ _____ _____    ______ ____
ROOT
ATOM      1  C   UNL     1       3.092   4.370   3.865  0.00  0.00    +0.075 C 
ENDROOT
BRANCH   1   6
ATOM      2  N   UNL     1       4.764   7.675   4.613  0.00  0.00    -0.200 NA
ATOM      3  N   UNL     1       6.171   5.881   5.396  0.00  0.00    -0.223 NA
ATOM      4  N   UNL     1       2.691   7.198   3.563  0.00  0.00    -0.343 N 
ATOM      5  N   UNL     1       6.819   8.122   5.653  0.00  0.00    -0.327 N 
ATOM      6  C   UNL     1       4.087   5.408   4.342  0.00  0.00    +0.015 A 
ATOM      7  C   UNL     1       3.880   6.748   4.189  0.00  0.00    +0.125 A 
ATOM      8  C   UNL     1       5.243   5.009   4.949  0.00  0.00    +0.121 A 
ATOM      9  C   UNL     1       5.872   7.180   5.198  0.00  0.00    +0.214 A 
ATOM     10  H   UNL     1       2.304   6.658   2.801  0.00  0.00    +0.144 HD
ATOM     11  H   UNL     1       2.580   8.203   3.505  0.00  0.00    +0.144 HD
ATOM     12  H   UNL     1       7.667   7.798   6.098  0.00  0.00    +0.145 HD
ATOM     13  H   UNL     1       6.640   9.108   5.526  0.00  0.00    +0.145 HD
ENDBRANCH   1   6
BRANCH   1  14
ATOM     14  C   UNL     1       3.649   3.409   2.870  0.00  0.00    -0.036 A 
ATOM     15  C   UNL     1       3.893   2.087   3.239  0.00  0.00    +0.053 A 
ATOM     16  C   UNL     1       3.927   3.833   1.570  0.00  0.00    +0.053 A 
ATOM     17  C   UNL     1       4.449   2.935   0.640  0.00  0.00    +0.165 A 
ATOM     18  C   UNL     1       4.415   1.188   2.308  0.00  0.00    +0.165 A 
ATOM     19  C   UNL     1       4.693   1.613   1.009  0.00  0.00    +0.204 A 
BRANCH  17  20
ATOM     20  O   UNL     1       4.716   3.362  -0.626  0.00  0.00    -0.491 OA
ATOM     21  C   UNL     1       6.070   3.697  -0.925  0.00  0.00    +0.277 C 
ENDBRANCH  17  20
BRANCH  18  22
ATOM     22  O   UNL     1       4.648  -0.101   2.682  0.00  0.00    -0.491 OA
ATOM     23  C   UNL     1       5.879  -0.370   3.350  0.00  0.00    +0.277 C 
ENDBRANCH  18  22
BRANCH  19  24
ATOM     24  O   UNL     1       5.203   0.733   0.099  0.00  0.00    -0.488 OA
ATOM     25  C   UNL     1       4.270   0.048  -0.732  0.00  0.00    +0.277 C 
ENDBRANCH  19  24
ENDBRANCH   1  14
TORSDOF 5
ENDMDL
MODEL 10
REMARK VINA RESULT:    -6.737      4.096      6.709
REMARK INTER + INTRA:          -9.167
REMARK INTER:                  -8.764
REMARK INTRA:                  -0.404
REMARK UNBOUND:                -0.461
REMARK  Name = 5578
REMARK  8 active torsions:
REMARK  status: ('A' for Active; 'I' for Inactive)
REMARK    1  A    between atoms: O_1  and  C_13
REMARK    2  A    between atoms: O_1  and  C_19
REMARK    3  A    between atoms: O_2  and  C_14
REMARK    4  A    between atoms: O_2  and  C_20
REMARK    5  A    between atoms: O_3  and  C_15
REMARK    6  A    between atoms: O_3  and  C_21
REMARK    7  A    between atoms: C_8  and  C_9
REMARK    8  A    between atoms: C_8  and  C_10
REMARK                            x       y       z     vdW  Elec       q    Type
REMARK                         _______ _______ _______ _____ _____    ______ ____
ROOT
ATOM      1  C   UNL     1       3.054   4.437   3.834  0.00  0.00    +0.075 C 
ENDROOT
BRANCH   1   6
ATOM      2  N   UNL     1       4.701   7.745   4.624  0.00  0.00    -0.200 NA
ATOM      3  N   UNL     1       6.107   5.953   5.411  0.00  0.00    -0.223 NA
ATOM      4  N   UNL     1       2.643   7.265   3.547  0.00  0.00    -0.343 N 
ATOM      5  N   UNL     1       6.741   8.195   5.692  0.00  0.00    -0.327 N 
ATOM      6  C   UNL     1       4.038   5.477   4.330  0.00  0.00    +0.015 A 
ATOM      7  C   UNL     1       3.827   6.817   4.184  0.00  0.00    +0.125 A 
ATOM      8  C   UNL     1       5.189   5.079   4.948  0.00  0.00    +0.121 A 
ATOM      9  C   UNL     1       5.804   7.251   5.219  0.00  0.00    +0.214 A 
ATOM     10  H   UNL     1       2.268   6.728   2.776  0.00  0.00    +0.144 HD
ATOM     11  H   UNL     1       2.528   8.270   3.493  0.00  0.00    +0.144 HD
ATOM     12  H   UNL     1       7.585   7.872   6.144  0.00  0.00    +0.145 HD
ATOM     13  H   UNL     1       6.559   9.181   5.569  0.00  0.00    +0.145 HD
ENDBRANCH   1   6
BRANCH   1  14
ATOM     14  C   UNL     1       3.626   3.491   2.833  0.00  0.00    -0.036 A 
ATOM     15  C   UNL     1       3.919   3.933   1.543  0.00  0.00    +0.053 A 
ATOM     16  C   UNL     1       3.866   2.163   3.186  0.00  0.00    +0.053 A 
ATOM     17  C   UNL     1       4.400   1.278   2.250  0.00  0.00    +0.165 A 
ATOM     18  C   UNL     1       4.454   3.048   0.607  0.00  0.00    +0.165 A 
ATOM     19  C   UNL     1       4.694   1.720   0.961  0.00  0.00    +0.204 A 
BRANCH  17  20
ATOM     20  O   UNL     1       4.631  -0.016   2.608  0.00  0.00    -0.491 OA
ATOM     21  C   UNL     1       5.853  -0.292   3.290  0.00  0.00    +0.277 C 
ENDBRANCH  17  20
BRANCH  18  22
ATOM     22  O   UNL     1       4.736   3.494  -0.649  0.00  0.00    -0.491 OA
ATOM     23  C   UNL     1       6.110   3.693  -0.972  0.00  0.00    +0.277 C 
ENDBRANCH  18  22
BRANCH  19  24
ATOM     24  O   UNL     1       5.216   0.855   0.045  0.00  0.00    -0.488 OA
ATOM     25  C   UNL     1       4.292   0.142  -0.773  0.00  0.00    +0.277 C 
ENDBRANCH  19  24
ENDBRANCH   1  14
TORSDOF 5
ENDMDL
