MODEL 1
REMARK VINA RESULT:    -9.070      0.000      0.000
REMARK INTER + INTRA:         -15.659
REMARK INTER:                 -14.373
REMARK INTRA:                  -1.286
REMARK UNBOUND:                -1.286
REMARK  Name = 135405876
REMARK  11 active torsions:
REMARK  status: ('A' for Active; 'I' for Inactive)
REMARK    1  A    between atoms: O_1  and  C_19
REMARK    2  A    between atoms: OE1_4  and  CD_26
REMARK    3  A    between atoms: N_7  and  CA_14
REMARK    4  A    between atoms: N_8  and  C_20
REMARK    5  A    between atoms: N_8  and  C_21
REMARK    6  A    between atoms: CA_14  and  CB_15
REMARK    7  A    between atoms: CA_14  and  C_19
REMARK    8  A    between atoms: CB_15  and  CG_16
REMARK    9  A    between atoms: CG_16  and  CD_26
REMARK   10  A    between atoms: C_17  and  C_18
REMARK   11  A    between atoms: C_21  and  C_27
REMARK                            x       y       z     vdW  Elec       q    Type
REMARK                         _______ _______ _______ _____ _____    ______ ____
ROOT
ATOM      1  C   UNK A   0       5.052   2.909   3.231  0.00  0.00    +0.037 A 
ATOM      2  C   UNK A   0       4.224   5.183   4.619  0.00  0.00    +0.027 A 
ATOM      3  C   UNK A   0       5.935   3.560   4.092  0.00  0.00    +0.015 A 
ATOM      4  C   UNK A   0       3.755   3.394   3.064  0.00  0.00    +0.015 A 
ATOM      5  C   UNK A   0       5.521   4.697   4.786  0.00  0.00    +0.023 A 
ATOM      6  C   UNK A   0       3.341   4.530   3.758  0.00  0.00    +0.023 A 
ENDROOT
BRANCH   1   9
ATOM      7  O   UNK A   0       5.855   0.709   3.127  0.00  0.00    -0.270 OA
ATOM      8  N   GLU A   1       5.436   1.773   1.109  0.00  0.00    -0.298 N 
ATOM      9  C   UNK A   0       5.493   1.697   2.494  0.00  0.00    +0.245 C 
ATOM     10  H   GLU A   1       5.084   2.608   0.655  0.00  0.00    +0.150 HD
BRANCH   8  11
ATOM     11  CA  GLU A   1       5.807   0.671   0.257  0.00  0.00    +0.182 C 
BRANCH  11  13
ATOM     12  OXT GLU A   1       3.790   0.070  -0.972  0.00  0.00    -0.249 OA
ATOM     13  C   GLU A   1       4.550  -0.126  -0.031  0.00  0.00    +0.325 C 
BRANCH  13  14
ATOM     14  O   GLU A   1       4.372  -1.132   0.865  0.00  0.00    -0.479 OA
ATOM     15  H   GLU A   1       3.789  -1.837   0.511  0.00  0.00    +0.295 HD
ENDBRANCH  13  14
ENDBRANCH  11  13
BRANCH  11  16
ATOM     16  CB  GLU A   1       6.558   1.117  -1.004  0.00  0.00    +0.045 C 
BRANCH  16  17
ATOM     17  CG  GLU A   1       6.586   2.628  -1.265  0.00  0.00    +0.123 C 
BRANCH  17  19
ATOM     18  OE2 GLU A   1       4.702   4.111  -0.829  0.00  0.00    -0.251 OA
ATOM     19  CD  GLU A   1       5.218   3.231  -1.505  0.00  0.00    +0.305 C 
BRANCH  19  20
ATOM     20  OE1 GLU A   1       4.589   2.644  -2.556  0.00  0.00    -0.481 OA
ATOM     21  HE1 GLU A   1       5.035   1.816  -2.835  0.00  0.00    +0.295 HD
ENDBRANCH  19  20
ENDBRANCH  17  19
ENDBRANCH  16  17
ENDBRANCH  11  16
ENDBRANCH   8  11
ENDBRANCH   1   9
BRANCH   2  22
ATOM     22  N   UNK A   0       3.805   6.333   5.319  0.00  0.00    -0.338 N 
ATOM     23  H   UNK A   0       2.811   6.424   5.505  0.00  0.00    +0.146 HD
BRANCH  22  24
ATOM     24  C   UNK A   0       4.712   7.343   5.769  0.00  0.00    +0.158 C 
BRANCH  24  31
ATOM     25  O   UNK A   0       1.503   9.089   2.349  0.00  0.00    -0.265 OA
ATOM     26  N   UNK A   0       3.565   8.663   4.070  0.00  0.00    -0.240 NA
ATOM     27  N   UNK A   0       5.587  10.615   4.139  0.00  0.00    -0.232 NA
ATOM     28  N   UNK A   0       2.441  11.085   1.634  0.00  0.00    -0.293 N 
ATOM     29  N   UNK A   0       4.481  11.881   2.505  0.00  0.00    -0.195 NA
ATOM     30  N   UNK A   0       3.332  13.108   0.869  0.00  0.00    -0.329 N 
ATOM     31  C   UNK A   0       4.632   8.556   4.883  0.00  0.00    +0.077 A 
ATOM     32  C   UNK A   0       3.539   9.767   3.297  0.00  0.00    +0.172 A 
ATOM     33  C   UNK A   0       5.624   9.512   4.918  0.00  0.00    +0.138 A 
ATOM     34  C   UNK A   0       4.523  10.737   3.317  0.00  0.00    +0.187 A 
ATOM     35  C   UNK A   0       2.395   9.927   2.394  0.00  0.00    +0.280 A 
ATOM     36  C   UNK A   0       3.464  12.027   1.700  0.00  0.00    +0.195 A 
ATOM     37  H   UNK A   0       1.677  11.257   0.987  0.00  0.00    +0.172 HD
ATOM     38  H   UNK A   0       4.030  13.843   0.850  0.00  0.00    +0.145 HD
ATOM     39  H   UNK A   0       2.536  13.204   0.249  0.00  0.00    +0.145 HD
ENDBRANCH  24  31
ENDBRANCH  22  24
ENDBRANCH   2  22
TORSDOF 11
ENDMDL
MODEL 2
REMARK VINA RESULT:    -9.055      1.559      2.315
REMARK INTER + INTRA:         -15.635
REMARK INTER:                 -14.340
REMARK INTRA:                  -1.295
REMARK UNBOUND:                -1.286
REMARK  Name = 135405876
REMARK  11 active torsions:
REMARK  status: ('A' for Active; 'I' for Inactive)
REMARK    1  A    between atoms: O_1  and  C_19
REMARK    2  A    between atoms: OE1_4  and  CD_26
REMARK    3  A    between atoms: N_7  and  CA_14
REMARK    4  A    between atoms: N_8  and  C_20
REMARK    5  A    between atoms: N_8  and  C_21
REMARK    6  A    between atoms: CA_14  and  CB_15
REMARK    7  A    between atoms: CA_14  and  C_19
REMARK    8  A    between atoms: CB_15  and  CG_16
REMARK    9  A    between atoms: CG_16  and  CD_26
REMARK   10  A    between atoms: C_17  and  C_18
REMARK   11  A    between atoms: C_21  and  C_27
REMARK                            x       y       z     vdW  Elec       q    Type
REMARK                         _______ _______ _______ _____ _____    ______ ____
ROOT
ATOM      1  C   UNK A   0       6.531   2.094   4.270  0.00  0.00    +0.037 A 
ATOM      2  C   UNK A   0       5.796   4.647   5.118  0.00  0.00    +0.027 A 
ATOM      3  C   UNK A   0       5.409   2.715   3.721  0.00  0.00    +0.015 A 
ATOM      4  C   UNK A   0       7.286   2.749   5.243  0.00  0.00    +0.015 A 
ATOM      5  C   UNK A   0       5.042   3.991   4.145  0.00  0.00    +0.023 A 
ATOM      6  C   UNK A   0       6.918   4.026   5.666  0.00  0.00    +0.023 A 
ENDROOT
BRANCH   1   9
ATOM      7  O   UNK A   0       7.759   0.105   4.460  0.00  0.00    -0.270 OA
ATOM      8  N   GLU A   1       6.281   0.262   2.681  0.00  0.00    -0.298 N 
ATOM      9  C   UNK A   0       6.924   0.734   3.816  0.00  0.00    +0.245 C 
ATOM     10  H   GLU A   1       5.568   0.821   2.225  0.00  0.00    +0.150 HD
BRANCH   8  11
ATOM     11  CA  GLU A   1       6.536  -1.047   2.133  0.00  0.00    +0.182 C 
BRANCH  11  13
ATOM     12  OXT GLU A   1       5.814  -2.743   3.726  0.00  0.00    -0.249 OA
ATOM     13  C   GLU A   1       5.560  -2.010   2.778  0.00  0.00    +0.325 C 
BRANCH  13  14
ATOM     14  O   GLU A   1       4.331  -1.946   2.204  0.00  0.00    -0.479 OA
ATOM     15  H   GLU A   1       4.156  -2.720   1.628  0.00  0.00    +0.295 HD
ENDBRANCH  13  14
ENDBRANCH  11  13
BRANCH  11  16
ATOM     16  CB  GLU A   1       6.504  -1.070   0.600  0.00  0.00    +0.045 C 
BRANCH  16  17
ATOM     17  CG  GLU A   1       6.260   0.282  -0.083  0.00  0.00    +0.123 C 
BRANCH  17  19
ATOM     18  OE2 GLU A   1       4.555   1.279  -1.509  0.00  0.00    -0.251 OA
ATOM     19  CD  GLU A   1       4.896   0.402  -0.728  0.00  0.00    +0.305 C 
BRANCH  19  20
ATOM     20  OE1 GLU A   1       4.053  -0.574  -0.302  0.00  0.00    -0.481 OA
ATOM     21  HE1 GLU A   1       4.530  -1.405  -0.092  0.00  0.00    +0.295 HD
ENDBRANCH  19  20
ENDBRANCH  17  19
ENDBRANCH  16  17
ENDBRANCH  11  16
ENDBRANCH   8  11
ENDBRANCH   1   9
BRANCH   2  22
ATOM     22  N   UNK A   0       5.424   5.938   5.549  0.00  0.00    -0.338 N 
ATOM     23  H   UNK A   0       6.139   6.496   6.003  0.00  0.00    +0.146 HD
BRANCH  22  24
ATOM     24  C   UNK A   0       4.110   6.470   5.363  0.00  0.00    +0.158 C 
BRANCH  24  31
ATOM     25  O   UNK A   0       1.171   8.967   2.172  0.00  0.00    -0.265 OA
ATOM     26  N   UNK A   0       3.140   8.111   3.841  0.00  0.00    -0.240 NA
ATOM     27  N   UNK A   0       5.348   9.817   4.184  0.00  0.00    -0.232 NA
ATOM     28  N   UNK A   0       2.323  10.930   1.733  0.00  0.00    -0.293 N 
ATOM     29  N   UNK A   0       4.414  11.392   2.720  0.00  0.00    -0.195 NA
ATOM     30  N   UNK A   0       3.432  12.932   1.248  0.00  0.00    -0.329 N 
ATOM     31  C   UNK A   0       4.172   7.789   4.643  0.00  0.00    +0.077 A 
ATOM     32  C   UNK A   0       3.244   9.302   3.219  0.00  0.00    +0.172 A 
ATOM     33  C   UNK A   0       5.256   8.626   4.812  0.00  0.00    +0.138 A 
ATOM     34  C   UNK A   0       4.321  10.154   3.375  0.00  0.00    +0.187 A 
ATOM     35  C   UNK A   0       2.143   9.695   2.335  0.00  0.00    +0.280 A 
ATOM     36  C   UNK A   0       3.435  11.745   1.931  0.00  0.00    +0.195 A 
ATOM     37  H   UNK A   0       1.595  11.263   1.107  0.00  0.00    +0.172 HD
ATOM     38  H   UNK A   0       4.201  13.588   1.331  0.00  0.00    +0.145 HD
ATOM     39  H   UNK A   0       2.663  13.190   0.639  0.00  0.00    +0.145 HD
ENDBRANCH  24  31
ENDBRANCH  22  24
ENDBRANCH   2  22
TORSDOF 11
ENDMDL
MODEL 3
REMARK VINA RESULT:    -8.985      1.042      2.116
REMARK INTER + INTRA:         -15.523
REMARK INTER:                 -14.381
REMARK INTRA:                  -1.142
REMARK UNBOUND:                -1.286
REMARK  Name = 135405876
REMARK  11 active torsions:
REMARK  status: ('A' for Active; 'I' for Inactive)
REMARK    1  A    between atoms: O_1  and  C_19
REMARK    2  A    between atoms: OE1_4  and  CD_26
REMARK    3  A    between atoms: N_7  and  CA_14
REMARK    4  A    between atoms: N_8  and  C_20
REMARK    5  A    between atoms: N_8  and  C_21
REMARK    6  A    between atoms: CA_14  and  CB_15
REMARK    7  A    between atoms: CA_14  and  C_19
REMARK    8  A    between atoms: CB_15  and  CG_16
REMARK    9  A    between atoms: CG_16  and  CD_26
REMARK   10  A    between atoms: C_17  and  C_18
REMARK   11  A    between atoms: C_21  and  C_27
REMARK                            x       y       z     vdW  Elec       q    Type
REMARK                         _______ _______ _______ _____ _____    ______ ____
ROOT
ATOM      1  C   UNK A   0       4.727   3.002   3.136  0.00  0.00    +0.037 A 
ATOM      2  C   UNK A   0       4.640   5.262   4.769  0.00  0.00    +0.027 A 
ATOM      3  C   UNK A   0       5.898   3.486   3.719  0.00  0.00    +0.015 A 
ATOM      4  C   UNK A   0       3.513   3.647   3.369  0.00  0.00    +0.015 A 
ATOM      5  C   UNK A   0       5.855   4.616   4.535  0.00  0.00    +0.023 A 
ATOM      6  C   UNK A   0       3.470   4.777   4.186  0.00  0.00    +0.023 A 
ENDROOT
BRANCH   1   9
ATOM      7  O   UNK A   0       4.712   0.684   2.784  0.00  0.00    -0.270 OA
ATOM      8  N   GLU A   1       4.861   2.032   0.903  0.00  0.00    -0.298 N 
ATOM      9  C   UNK A   0       4.773   1.797   2.268  0.00  0.00    +0.245 C 
ATOM     10  H   GLU A   1       4.863   2.981   0.545  0.00  0.00    +0.150 HD
BRANCH   8  11
ATOM     11  CA  GLU A   1       4.890   0.967  -0.068  0.00  0.00    +0.182 C 
BRANCH  11  13
ATOM     12  OXT GLU A   1       3.811   1.851  -2.065  0.00  0.00    -0.249 OA
ATOM     13  C   GLU A   1       3.744   1.197  -1.032  0.00  0.00    +0.325 C 
BRANCH  13  14
ATOM     14  O   GLU A   1       2.614   0.552  -0.639  0.00  0.00    -0.479 OA
ATOM     15  H   GLU A   1       1.957   1.168  -0.252  0.00  0.00    +0.295 HD
ENDBRANCH  13  14
ENDBRANCH  11  13
BRANCH  11  16
ATOM     16  CB  GLU A   1       6.253   0.820  -0.753  0.00  0.00    +0.045 C 
BRANCH  16  17
ATOM     17  CG  GLU A   1       6.861  -0.589  -0.735  0.00  0.00    +0.123 C 
BRANCH  17  19
ATOM     18  OE2 GLU A   1       5.424  -2.296   0.243  0.00  0.00    -0.251 OA
ATOM     19  CD  GLU A   1       6.320  -1.473   0.368  0.00  0.00    +0.305 C 
BRANCH  19  20
ATOM     20  OE1 GLU A   1       6.925  -1.217   1.557  0.00  0.00    -0.481 OA
ATOM     21  HE1 GLU A   1       7.015  -0.254   1.723  0.00  0.00    +0.295 HD
ENDBRANCH  19  20
ENDBRANCH  17  19
ENDBRANCH  16  17
ENDBRANCH  11  16
ENDBRANCH   8  11
ENDBRANCH   1   9
BRANCH   2  22
ATOM     22  N   UNK A   0       4.596   6.405   5.593  0.00  0.00    -0.338 N 
ATOM     23  H   UNK A   0       3.759   6.540   6.150  0.00  0.00    +0.146 HD
BRANCH  22  24
ATOM     24  C   UNK A   0       5.667   7.350   5.670  0.00  0.00    +0.158 C 
BRANCH  24  31
ATOM     25  O   UNK A   0       1.783   8.972   2.962  0.00  0.00    -0.265 OA
ATOM     26  N   UNK A   0       4.163   8.619   4.230  0.00  0.00    -0.240 NA
ATOM     27  N   UNK A   0       6.104  10.620   3.869  0.00  0.00    -0.232 NA
ATOM     28  N   UNK A   0       2.502  10.980   2.055  0.00  0.00    -0.293 N 
ATOM     29  N   UNK A   0       4.655  11.837   2.485  0.00  0.00    -0.195 NA
ATOM     30  N   UNK A   0       3.165  13.013   1.108  0.00  0.00    -0.329 N 
ATOM     31  C   UNK A   0       5.376   8.549   4.809  0.00  0.00    +0.077 A 
ATOM     32  C   UNK A   0       3.951   9.712   3.470  0.00  0.00    +0.172 A 
ATOM     33  C   UNK A   0       6.328   9.530   4.633  0.00  0.00    +0.138 A 
ATOM     34  C   UNK A   0       4.892  10.705   3.281  0.00  0.00    +0.187 A 
ATOM     35  C   UNK A   0       2.643   9.831   2.818  0.00  0.00    +0.280 A 
ATOM     36  C   UNK A   0       3.492  11.947   1.903  0.00  0.00    +0.195 A 
ATOM     37  H   UNK A   0       1.618  11.124   1.576  0.00  0.00    +0.172 HD
ATOM     38  H   UNK A   0       3.824  13.765   0.941  0.00  0.00    +0.145 HD
ATOM     39  H   UNK A   0       2.256  13.083   0.663  0.00  0.00    +0.145 HD
ENDBRANCH  24  31
ENDBRANCH  22  24
ENDBRANCH   2  22
TORSDOF 11
ENDMDL
MODEL 4
REMARK VINA RESULT:    -8.966      1.820      3.106
REMARK INTER + INTRA:         -15.493
REMARK INTER:                 -14.482
REMARK INTRA:                  -1.012
REMARK UNBOUND:                -1.286
REMARK  Name = 135405876
REMARK  11 active torsions:
REMARK  status: ('A' for Active; 'I' for Inactive)
REMARK    1  A    between atoms: O_1  and  C_19
REMARK    2  A    between atoms: OE1_4  and  CD_26
REMARK    3  A    between atoms: N_7  and  CA_14
REMARK    4  A    between atoms: N_8  and  C_20
REMARK    5  A    between atoms: N_8  and  C_21
REMARK    6  A    between atoms: CA_14  and  CB_15
REMARK    7  A    between atoms: CA_14  and  C_19
REMARK    8  A    between atoms: CB_15  and  CG_16
REMARK    9  A    between atoms: CG_16  and  CD_26
REMARK   10  A    between atoms: C_17  and  C_18
REMARK   11  A    between atoms: C_21  and  C_27
REMARK                            x       y       z     vdW  Elec       q    Type
REMARK                         _______ _______ _______ _____ _____    ______ ____
ROOT
ATOM      1  C   UNK A   0       4.751   2.469   2.488  0.00  0.00    +0.037 A 
ATOM      2  C   UNK A   0       4.992   4.534   4.347  0.00  0.00    +0.027 A 
ATOM      3  C   UNK A   0       5.979   2.713   3.103  0.00  0.00    +0.015 A 
ATOM      4  C   UNK A   0       3.643   3.257   2.802  0.00  0.00    +0.015 A 
ATOM      5  C   UNK A   0       6.099   3.746   4.032  0.00  0.00    +0.023 A 
ATOM      6  C   UNK A   0       3.764   4.289   3.732  0.00  0.00    +0.023 A 
ENDROOT
BRANCH   1   9
ATOM      7  O   UNK A   0       3.646   1.341   0.754  0.00  0.00    -0.270 OA
ATOM      8  N   GLU A   1       5.657   0.442   1.480  0.00  0.00    -0.298 N 
ATOM      9  C   UNK A   0       4.622   1.367   1.499  0.00  0.00    +0.245 C 
ATOM     10  H   GLU A   1       6.454   0.551   2.096  0.00  0.00    +0.150 HD
BRANCH   8  11
ATOM     11  CA  GLU A   1       5.687  -0.668   0.561  0.00  0.00    +0.182 C 
BRANCH  11  13
ATOM     12  OXT GLU A   1       6.138   0.617  -1.458  0.00  0.00    -0.249 OA
ATOM     13  C   GLU A   1       6.486  -0.236  -0.651  0.00  0.00    +0.325 C 
BRANCH  13  14
ATOM     14  O   GLU A   1       7.678  -0.883  -0.730  0.00  0.00    -0.479 OA
ATOM     15  H   GLU A   1       7.767  -1.570  -0.036  0.00  0.00    +0.295 HD
ENDBRANCH  13  14
ENDBRANCH  11  13
BRANCH  11  16
ATOM     16  CB  GLU A   1       6.195  -1.963   1.206  0.00  0.00    +0.045 C 
BRANCH  16  17
ATOM     17  CG  GLU A   1       5.711  -2.233   2.636  0.00  0.00    +0.123 C 
BRANCH  17  19
ATOM     18  OE2 GLU A   1       6.611  -1.858   4.869  0.00  0.00    -0.251 OA
ATOM     19  CD  GLU A   1       6.796  -2.094   3.683  0.00  0.00    +0.305 C 
BRANCH  19  20
ATOM     20  OE1 GLU A   1       8.035  -2.221   3.141  0.00  0.00    -0.481 OA
ATOM     21  HE1 GLU A   1       8.045  -2.858   2.395  0.00  0.00    +0.295 HD
ENDBRANCH  19  20
ENDBRANCH  17  19
ENDBRANCH  16  17
ENDBRANCH  11  16
ENDBRANCH   8  11
ENDBRANCH   1   9
BRANCH   2  22
ATOM     22  N   UNK A   0       5.113   5.579   5.286  0.00  0.00    -0.338 N 
ATOM     23  H   UNK A   0       6.023   5.711   5.715  0.00  0.00    +0.146 HD
BRANCH  22  24
ATOM     24  C   UNK A   0       4.024   6.438   5.638  0.00  0.00    +0.158 C 
BRANCH  24  31
ATOM     25  O   UNK A   0       0.952   8.852   2.510  0.00  0.00    -0.265 OA
ATOM     26  N   UNK A   0       3.004   8.022   4.091  0.00  0.00    -0.240 NA
ATOM     27  N   UNK A   0       5.283   9.667   4.181  0.00  0.00    -0.232 NA
ATOM     28  N   UNK A   0       2.131  10.745   1.879  0.00  0.00    -0.293 N 
ATOM     29  N   UNK A   0       4.299  11.187   2.693  0.00  0.00    -0.195 NA
ATOM     30  N   UNK A   0       3.266  12.675   1.202  0.00  0.00    -0.329 N 
ATOM     31  C   UNK A   0       4.078   7.711   4.839  0.00  0.00    +0.077 A 
ATOM     32  C   UNK A   0       3.102   9.172   3.393  0.00  0.00    +0.172 A 
ATOM     33  C   UNK A   0       5.197   8.517   4.884  0.00  0.00    +0.138 A 
ATOM     34  C   UNK A   0       4.213   9.993   3.426  0.00  0.00    +0.187 A 
ATOM     35  C   UNK A   0       1.954   9.552   2.563  0.00  0.00    +0.280 A 
ATOM     36  C   UNK A   0       3.279  11.529   1.953  0.00  0.00    +0.195 A 
ATOM     37  H   UNK A   0       1.372  11.066   1.285  0.00  0.00    +0.172 HD
ATOM     38  H   UNK A   0       4.059  13.306   1.194  0.00  0.00    +0.145 HD
ATOM     39  H   UNK A   0       2.466  12.925   0.632  0.00  0.00    +0.145 HD
ENDBRANCH  24  31
ENDBRANCH  22  24
ENDBRANCH   2  22
TORSDOF 11
ENDMDL
MODEL 5
REMARK VINA RESULT:    -8.828      2.666      8.273
REMARK INTER + INTRA:         -15.275
REMARK INTER:                 -14.105
REMARK INTRA:                  -1.170
REMARK UNBOUND:                -1.286
REMARK  Name = 135405876
REMARK  11 active torsions:
REMARK  status: ('A' for Active; 'I' for Inactive)
REMARK    1  A    between atoms: O_1  and  C_19
REMARK    2  A    between atoms: OE1_4  and  CD_26
REMARK    3  A    between atoms: N_7  and  CA_14
REMARK    4  A    between atoms: N_8  and  C_20
REMARK    5  A    between atoms: N_8  and  C_21
REMARK    6  A    between atoms: CA_14  and  CB_15
REMARK    7  A    between atoms: CA_14  and  C_19
REMARK    8  A    between atoms: CB_15  and  CG_16
REMARK    9  A    between atoms: CG_16  and  CD_26
REMARK   10  A    between atoms: C_17  and  C_18
REMARK   11  A    between atoms: C_21  and  C_27
REMARK                            x       y       z     vdW  Elec       q    Type
REMARK                         _______ _______ _______ _____ _____    ______ ____
ROOT
ATOM      1  C   UNK A   0       4.418   6.298   4.905  0.00  0.00    +0.037 A 
ATOM      2  C   UNK A   0       5.250   3.637   4.808  0.00  0.00    +0.027 A 
ATOM      3  C   UNK A   0       5.696   5.951   5.343  0.00  0.00    +0.015 A 
ATOM      4  C   UNK A   0       3.556   5.315   4.418  0.00  0.00    +0.015 A 
ATOM      5  C   UNK A   0       6.112   4.621   5.296  0.00  0.00    +0.023 A 
ATOM      6  C   UNK A   0       3.973   3.985   4.370  0.00  0.00    +0.023 A 
ENDROOT
BRANCH   1   9
ATOM      7  O   UNK A   0       3.195   8.070   5.834  0.00  0.00    -0.270 OA
ATOM      8  N   GLU A   1       4.511   8.555   3.988  0.00  0.00    -0.298 N 
ATOM      9  C   UNK A   0       3.975   7.716   4.954  0.00  0.00    +0.245 C 
ATOM     10  H   GLU A   1       5.185   8.201   3.318  0.00  0.00    +0.150 HD
BRANCH   8  11
ATOM     11  CA  GLU A   1       4.198   9.960   3.920  0.00  0.00    +0.182 C 
BRANCH  11  13
ATOM     12  OXT GLU A   1       5.856  11.548   3.108  0.00  0.00    -0.249 OA
ATOM     13  C   GLU A   1       5.507  10.722   3.941  0.00  0.00    +0.325 C 
BRANCH  13  14
ATOM     14  O   GLU A   1       6.256  10.411   5.031  0.00  0.00    -0.479 OA
ATOM     15  H   GLU A   1       7.080   9.939   4.786  0.00  0.00    +0.295 HD
ENDBRANCH  13  14
ENDBRANCH  11  13
BRANCH  11  16
ATOM     16  CB  GLU A   1       3.295  10.315   2.733  0.00  0.00    +0.045 C 
BRANCH  16  17
ATOM     17  CG  GLU A   1       2.370   9.195   2.238  0.00  0.00    +0.123 C 
BRANCH  17  19
ATOM     18  OE2 GLU A   1       0.527   8.022   3.317  0.00  0.00    -0.251 OA
ATOM     19  CD  GLU A   1       1.085   9.072   3.029  0.00  0.00    +0.305 C 
BRANCH  19  20
ATOM     20  OE1 GLU A   1       0.581  10.290   3.359  0.00  0.00    -0.481 OA
ATOM     21  HE1 GLU A   1       0.686  10.939   2.631  0.00  0.00    +0.295 HD
ENDBRANCH  19  20
ENDBRANCH  17  19
ENDBRANCH  16  17
ENDBRANCH  11  16
ENDBRANCH   8  11
ENDBRANCH   1   9
BRANCH   2  22
ATOM     22  N   UNK A   0       5.670   2.292   4.761  0.00  0.00    -0.338 N 
ATOM     23  H   UNK A   0       5.364   1.686   5.515  0.00  0.00    +0.146 HD
BRANCH  22  24
ATOM     24  C   UNK A   0       6.485   1.769   3.708  0.00  0.00    +0.158 C 
BRANCH  24  31
ATOM     25  O   UNK A   0       6.970   4.338  -0.561  0.00  0.00    -0.265 OA
ATOM     26  N   UNK A   0       6.216   2.686   1.464  0.00  0.00    -0.240 NA
ATOM     27  N   UNK A   0       3.969   1.058   1.007  0.00  0.00    -0.232 NA
ATOM     28  N   UNK A   0       5.234   3.581  -1.897  0.00  0.00    -0.293 N 
ATOM     29  N   UNK A   0       3.713   1.942  -1.149  0.00  0.00    -0.195 NA
ATOM     30  N   UNK A   0       3.503   2.861  -3.297  0.00  0.00    -0.329 N 
ATOM     31  C   UNK A   0       5.754   1.831   2.395  0.00  0.00    +0.077 A 
ATOM     32  C   UNK A   0       5.526   2.704   0.306  0.00  0.00    +0.172 A 
ATOM     33  C   UNK A   0       4.652   1.032   2.172  0.00  0.00    +0.138 A 
ATOM     34  C   UNK A   0       4.420   1.911   0.064  0.00  0.00    +0.187 A 
ATOM     35  C   UNK A   0       5.993   3.621  -0.738  0.00  0.00    +0.280 A 
ATOM     36  C   UNK A   0       4.126   2.758  -2.081  0.00  0.00    +0.195 A 
ATOM     37  H   UNK A   0       5.505   4.193  -2.661  0.00  0.00    +0.172 HD
ATOM     38  H   UNK A   0       2.688   2.300  -3.519  0.00  0.00    +0.145 HD
ATOM     39  H   UNK A   0       3.837   3.500  -4.010  0.00  0.00    +0.145 HD
ENDBRANCH  24  31
ENDBRANCH  22  24
ENDBRANCH   2  22
TORSDOF 11
ENDMDL
MODEL 6
REMARK VINA RESULT:    -8.802      2.875      8.727
REMARK INTER + INTRA:         -15.233
REMARK INTER:                 -14.226
REMARK INTRA:                  -1.007
REMARK UNBOUND:                -1.286
REMARK  Name = 135405876
REMARK  11 active torsions:
REMARK  status: ('A' for Active; 'I' for Inactive)
REMARK    1  A    between atoms: O_1  and  C_19
REMARK    2  A    between atoms: OE1_4  and  CD_26
REMARK    3  A    between atoms: N_7  and  CA_14
REMARK    4  A    between atoms: N_8  and  C_20
REMARK    5  A    between atoms: N_8  and  C_21
REMARK    6  A    between atoms: CA_14  and  CB_15
REMARK    7  A    between atoms: CA_14  and  C_19
REMARK    8  A    between atoms: CB_15  and  CG_16
REMARK    9  A    between atoms: CG_16  and  CD_26
REMARK   10  A    between atoms: C_17  and  C_18
REMARK   11  A    between atoms: C_21  and  C_27
REMARK                            x       y       z     vdW  Elec       q    Type
REMARK                         _______ _______ _______ _____ _____    ______ ____
ROOT
ATOM      1  C   UNK A   0       4.583   6.137   4.942  0.00  0.00    +0.037 A 
ATOM      2  C   UNK A   0       5.328   3.452   4.836  0.00  0.00    +0.027 A 
ATOM      3  C   UNK A   0       3.705   5.191   4.414  0.00  0.00    +0.015 A 
ATOM      4  C   UNK A   0       5.833   5.742   5.417  0.00  0.00    +0.015 A 
ATOM      5  C   UNK A   0       4.078   3.848   4.361  0.00  0.00    +0.023 A 
ATOM      6  C   UNK A   0       6.206   4.399   5.364  0.00  0.00    +0.023 A 
ENDROOT
BRANCH   1   9
ATOM      7  O   UNK A   0       4.923   8.373   5.562  0.00  0.00    -0.270 OA
ATOM      8  N   GLU A   1       2.987   7.893   4.379  0.00  0.00    -0.298 N 
ATOM      9  C   UNK A   0       4.185   7.568   5.000  0.00  0.00    +0.245 C 
ATOM     10  H   GLU A   1       2.450   7.181   3.896  0.00  0.00    +0.150 HD
BRANCH   8  11
ATOM     11  CA  GLU A   1       2.480   9.241   4.330  0.00  0.00    +0.182 C 
BRANCH  11  13
ATOM     12  OXT GLU A   1       2.312   9.734   1.950  0.00  0.00    -0.249 OA
ATOM     13  C   GLU A   1       1.772   9.414   3.001  0.00  0.00    +0.325 C 
BRANCH  13  14
ATOM     14  O   GLU A   1       0.446   9.133   3.093  0.00  0.00    -0.479 OA
ATOM     15  H   GLU A   1      -0.086   9.668   2.466  0.00  0.00    +0.295 HD
ENDBRANCH  13  14
ENDBRANCH  11  13
BRANCH  11  16
ATOM     16  CB  GLU A   1       1.612   9.598   5.543  0.00  0.00    +0.045 C 
BRANCH  16  17
ATOM     17  CG  GLU A   1       1.448  11.096   5.829  0.00  0.00    +0.123 C 
BRANCH  17  19
ATOM     18  OE2 GLU A   1      -0.975  11.208   6.062  0.00  0.00    -0.251 OA
ATOM     19  CD  GLU A   1       0.056  11.621   5.549  0.00  0.00    +0.305 C 
BRANCH  19  20
ATOM     20  OE1 GLU A   1       0.071  12.601   4.608  0.00  0.00    -0.481 OA
ATOM     21  HE1 GLU A   1      -0.149  13.478   4.988  0.00  0.00    +0.295 HD
ENDBRANCH  19  20
ENDBRANCH  17  19
ENDBRANCH  16  17
ENDBRANCH  11  16
ENDBRANCH   8  11
ENDBRANCH   1   9
BRANCH   2  22
ATOM     22  N   UNK A   0       5.706   2.094   4.781  0.00  0.00    -0.338 N 
ATOM     23  H   UNK A   0       5.396   1.498   5.541  0.00  0.00    +0.146 HD
BRANCH  22  24
ATOM     24  C   UNK A   0       6.487   1.547   3.715  0.00  0.00    +0.158 C 
BRANCH  24  31
ATOM     25  O   UNK A   0       6.953   4.261  -0.465  0.00  0.00    -0.265 OA
ATOM     26  N   UNK A   0       6.206   2.543   1.506  0.00  0.00    -0.240 NA
ATOM     27  N   UNK A   0       3.949   0.943   1.008  0.00  0.00    -0.232 NA
ATOM     28  N   UNK A   0       5.205   3.560  -1.814  0.00  0.00    -0.293 N 
ATOM     29  N   UNK A   0       3.681   1.903  -1.113  0.00  0.00    -0.195 NA
ATOM     30  N   UNK A   0       3.462   2.897  -3.227  0.00  0.00    -0.329 N 
ATOM     31  C   UNK A   0       5.746   1.658   2.410  0.00  0.00    +0.077 A 
ATOM     32  C   UNK A   0       5.508   2.604   0.354  0.00  0.00    +0.172 A 
ATOM     33  C   UNK A   0       4.639   0.872   2.167  0.00  0.00    +0.138 A 
ATOM     34  C   UNK A   0       4.397   1.826   0.092  0.00  0.00    +0.187 A 
ATOM     35  C   UNK A   0       5.972   3.556  -0.660  0.00  0.00    +0.280 A 
ATOM     36  C   UNK A   0       4.092   2.749  -2.019  0.00  0.00    +0.195 A 
ATOM     37  H   UNK A   0       5.473   4.197  -2.559  0.00  0.00    +0.172 HD
ATOM     38  H   UNK A   0       2.642   2.347  -3.462  0.00  0.00    +0.145 HD
ATOM     39  H   UNK A   0       3.793   3.560  -3.919  0.00  0.00    +0.145 HD
ENDBRANCH  24  31
ENDBRANCH  22  24
ENDBRANCH   2  22
TORSDOF 11
ENDMDL
MODEL 7
REMARK VINA RESULT:    -8.788      1.772      3.125
REMARK INTER + INTRA:         -15.211
REMARK INTER:                 -14.243
REMARK INTRA:                  -0.968
REMARK UNBOUND:                -1.286
REMARK  Name = 135405876
REMARK  11 active torsions:
REMARK  status: ('A' for Active; 'I' for Inactive)
REMARK    1  A    between atoms: O_1  and  C_19
REMARK    2  A    between atoms: OE1_4  and  CD_26
REMARK    3  A    between atoms: N_7  and  CA_14
REMARK    4  A    between atoms: N_8  and  C_20
REMARK    5  A    between atoms: N_8  and  C_21
REMARK    6  A    between atoms: CA_14  and  CB_15
REMARK    7  A    between atoms: CA_14  and  C_19
REMARK    8  A    between atoms: CB_15  and  CG_16
REMARK    9  A    between atoms: CG_16  and  CD_26
REMARK   10  A    between atoms: C_17  and  C_18
REMARK   11  A    between atoms: C_21  and  C_27
REMARK                            x       y       z     vdW  Elec       q    Type
REMARK                         _______ _______ _______ _____ _____    ______ ____
ROOT
ATOM      1  C   UNK A   0       4.403   3.075   3.906  0.00  0.00    +0.037 A 
ATOM      2  C   UNK A   0       4.614   5.608   5.054  0.00  0.00    +0.027 A 
ATOM      3  C   UNK A   0       3.319   3.951   3.864  0.00  0.00    +0.015 A 
ATOM      4  C   UNK A   0       5.593   3.464   4.521  0.00  0.00    +0.015 A 
ATOM      5  C   UNK A   0       3.424   5.218   4.438  0.00  0.00    +0.023 A 
ATOM      6  C   UNK A   0       5.698   4.731   5.094  0.00  0.00    +0.023 A 
ENDROOT
BRANCH   1   9
ATOM      7  O   UNK A   0       3.192   1.179   3.241  0.00  0.00    -0.270 OA
ATOM      8  N   GLU A   1       5.468   1.185   2.793  0.00  0.00    -0.298 N 
ATOM      9  C   UNK A   0       4.291   1.726   3.293  0.00  0.00    +0.245 C 
ATOM     10  H   GLU A   1       6.332   1.714   2.832  0.00  0.00    +0.150 HD
BRANCH   8  11
ATOM     11  CA  GLU A   1       5.516  -0.103   2.147  0.00  0.00    +0.182 C 
BRANCH  11  13
ATOM     12  OXT GLU A   1       5.919   0.818  -0.072  0.00  0.00    -0.249 OA
ATOM     13  C   GLU A   1       5.246   0.115   0.673  0.00  0.00    +0.325 C 
BRANCH  13  14
ATOM     14  O   GLU A   1       4.174  -0.600   0.243  0.00  0.00    -0.479 OA
ATOM     15  H   GLU A   1       4.251  -1.550   0.475  0.00  0.00    +0.295 HD
ENDBRANCH  13  14
ENDBRANCH  11  13
BRANCH  11  16
ATOM     16  CB  GLU A   1       6.816  -0.865   2.431  0.00  0.00    +0.045 C 
BRANCH  16  17
ATOM     17  CG  GLU A   1       7.208  -0.991   3.909  0.00  0.00    +0.123 C 
BRANCH  17  19
ATOM     18  OE2 GLU A   1       8.879   0.437   4.960  0.00  0.00    -0.251 OA
ATOM     19  CD  GLU A   1       8.604  -0.493   4.214  0.00  0.00    +0.305 C 
BRANCH  19  20
ATOM     20  OE1 GLU A   1       9.545  -1.182   3.518  0.00  0.00    -0.481 OA
ATOM     21  HE1 GLU A   1      10.451  -0.851   3.699  0.00  0.00    +0.295 HD
ENDBRANCH  19  20
ENDBRANCH  17  19
ENDBRANCH  16  17
ENDBRANCH  11  16
ENDBRANCH   8  11
ENDBRANCH   1   9
BRANCH   2  22
ATOM     22  N   UNK A   0       4.721   6.889   5.635  0.00  0.00    -0.338 N 
ATOM     23  H   UNK A   0       3.946   7.199   6.213  0.00  0.00    +0.146 HD
BRANCH  22  24
ATOM     24  C   UNK A   0       5.857   7.736   5.446  0.00  0.00    +0.158 C 
BRANCH  24  31
ATOM     25  O   UNK A   0       2.030   9.019   2.486  0.00  0.00    -0.265 OA
ATOM     26  N   UNK A   0       4.327   8.889   3.938  0.00  0.00    -0.240 NA
ATOM     27  N   UNK A   0       6.026  11.126   3.831  0.00  0.00    -0.232 NA
ATOM     28  N   UNK A   0       2.564  11.145   1.731  0.00  0.00    -0.293 N 
ATOM     29  N   UNK A   0       4.553  12.231   2.381  0.00  0.00    -0.195 NA
ATOM     30  N   UNK A   0       3.042  13.291   0.932  0.00  0.00    -0.329 N 
ATOM     31  C   UNK A   0       5.488   8.935   4.616  0.00  0.00    +0.077 A 
ATOM     32  C   UNK A   0       4.042   9.987   3.210  0.00  0.00    +0.172 A 
ATOM     33  C   UNK A   0       6.323  10.031   4.564  0.00  0.00    +0.138 A 
ATOM     34  C   UNK A   0       4.864  11.095   3.145  0.00  0.00    +0.187 A 
ATOM     35  C   UNK A   0       2.786   9.983   2.453  0.00  0.00    +0.280 A 
ATOM     36  C   UNK A   0       3.435  12.231   1.707  0.00  0.00    +0.195 A 
ATOM     37  H   UNK A   0       1.710  11.207   1.185  0.00  0.00    +0.172 HD
ATOM     38  H   UNK A   0       3.615  14.125   0.855  0.00  0.00    +0.145 HD
ATOM     39  H   UNK A   0       2.171  13.273   0.414  0.00  0.00    +0.145 HD
ENDBRANCH  24  31
ENDBRANCH  22  24
ENDBRANCH   2  22
TORSDOF 11
ENDMDL
MODEL 8
REMARK VINA RESULT:    -8.490      3.631     10.166
REMARK INTER + INTRA:         -14.740
REMARK INTER:                 -13.337
REMARK INTRA:                  -1.403
REMARK UNBOUND:                -1.286
REMARK  Name = 135405876
REMARK  11 active torsions:
REMARK  status: ('A' for Active; 'I' for Inactive)
REMARK    1  A    between atoms: O_1  and  C_19
REMARK    2  A    between atoms: OE1_4  and  CD_26
REMARK    3  A    between atoms: N_7  and  CA_14
REMARK    4  A    between atoms: N_8  and  C_20
REMARK    5  A    between atoms: N_8  and  C_21
REMARK    6  A    between atoms: CA_14  and  CB_15
REMARK    7  A    between atoms: CA_14  and  C_19
REMARK    8  A    between atoms: CB_15  and  CG_16
REMARK    9  A    between atoms: CG_16  and  CD_26
REMARK   10  A    between atoms: C_17  and  C_18
REMARK   11  A    between atoms: C_21  and  C_27
REMARK                            x       y       z     vdW  Elec       q    Type
REMARK                         _______ _______ _______ _____ _____    ______ ____
ROOT
ATOM      1  C   UNK A   0       4.340   7.713   4.659  0.00  0.00    +0.037 A 
ATOM      2  C   UNK A   0       3.956   4.971   4.320  0.00  0.00    +0.027 A 
ATOM      3  C   UNK A   0       3.308   7.250   3.843  0.00  0.00    +0.015 A 
ATOM      4  C   UNK A   0       5.181   6.807   5.305  0.00  0.00    +0.015 A 
ATOM      5  C   UNK A   0       3.116   5.879   3.674  0.00  0.00    +0.023 A 
ATOM      6  C   UNK A   0       4.988   5.436   5.136  0.00  0.00    +0.023 A 
ENDROOT
BRANCH   1   9
ATOM      7  O   UNK A   0       5.645   9.586   5.196  0.00  0.00    -0.270 OA
ATOM      8  N   GLU A   1       3.448   9.980   4.566  0.00  0.00    -0.298 N 
ATOM      9  C   UNK A   0       4.544   9.174   4.841  0.00  0.00    +0.245 C 
ATOM     10  H   GLU A   1       2.581   9.572   4.234  0.00  0.00    +0.150 HD
BRANCH   8  11
ATOM     11  CA  GLU A   1       3.497  11.417   4.672  0.00  0.00    +0.182 C 
BRANCH  11  13
ATOM     12  OXT GLU A   1       3.848  12.995   2.850  0.00  0.00    -0.249 OA
ATOM     13  C   GLU A   1       3.307  11.985   3.280  0.00  0.00    +0.325 C 
BRANCH  13  14
ATOM     14  O   GLU A   1       2.482  11.212   2.526  0.00  0.00    -0.479 OA
ATOM     15  H   GLU A   1       1.565  11.207   2.876  0.00  0.00    +0.295 HD
ENDBRANCH  13  14
ENDBRANCH  11  13
BRANCH  11  16
ATOM     16  CB  GLU A   1       2.510  11.973   5.705  0.00  0.00    +0.045 C 
BRANCH  16  17
ATOM     17  CG  GLU A   1       1.504  10.966   6.279  0.00  0.00    +0.123 C 
BRANCH  17  19
ATOM     18  OE2 GLU A   1       0.235  10.452   4.264  0.00  0.00    -0.251 OA
ATOM     19  CD  GLU A   1       0.258  10.802   5.435  0.00  0.00    +0.305 C 
BRANCH  19  20
ATOM     20  OE1 GLU A   1      -0.863  11.137   6.127  0.00  0.00    -0.481 OA
ATOM     21  HE1 GLU A   1      -0.888  10.713   7.011  0.00  0.00    +0.295 HD
ENDBRANCH  19  20
ENDBRANCH  17  19
ENDBRANCH  16  17
ENDBRANCH  11  16
ENDBRANCH   8  11
ENDBRANCH   1   9
BRANCH   2  22
ATOM     22  N   UNK A   0       3.763   3.585   4.148  0.00  0.00    -0.338 N 
ATOM     23  H   UNK A   0       3.485   3.053   4.966  0.00  0.00    +0.146 HD
BRANCH  22  24
ATOM     24  C   UNK A   0       3.937   2.926   2.890  0.00  0.00    +0.158 C 
BRANCH  24  31
ATOM     25  O   UNK A   0       8.121   2.062   5.498  0.00  0.00    -0.265 OA
ATOM     26  N   UNK A   0       5.951   1.954   3.862  0.00  0.00    -0.240 NA
ATOM     27  N   UNK A   0       5.587  -0.414   2.390  0.00  0.00    -0.232 NA
ATOM     28  N   UNK A   0       8.765  -0.076   4.876  0.00  0.00    -0.293 N 
ATOM     29  N   UNK A   0       7.524  -1.346   3.325  0.00  0.00    -0.195 NA
ATOM     30  N   UNK A   0       9.470  -2.228   4.292  0.00  0.00    -0.329 N 
ATOM     31  C   UNK A   0       4.913   1.789   3.022  0.00  0.00    +0.077 A 
ATOM     32  C   UNK A   0       6.797   0.907   3.944  0.00  0.00    +0.172 A 
ATOM     33  C   UNK A   0       4.733   0.628   2.300  0.00  0.00    +0.138 A 
ATOM     34  C   UNK A   0       6.634  -0.264   3.229  0.00  0.00    +0.187 A 
ATOM     35  C   UNK A   0       7.944   1.041   4.847  0.00  0.00    +0.280 A 
ATOM     36  C   UNK A   0       8.546  -1.230   4.129  0.00  0.00    +0.195 A 
ATOM     37  H   UNK A   0       9.579  -0.049   5.483  0.00  0.00    +0.172 HD
ATOM     38  H   UNK A   0       9.391  -3.104   3.788  0.00  0.00    +0.145 HD
ATOM     39  H   UNK A   0      10.259  -2.122   4.920  0.00  0.00    +0.145 HD
ENDBRANCH  24  31
ENDBRANCH  22  24
ENDBRANCH   2  22
TORSDOF 11
ENDMDL
MODEL 9
REMARK VINA RESULT:    -8.459      2.525      9.039
REMARK INTER + INTRA:         -14.690
REMARK INTER:                 -13.220
REMARK INTRA:                  -1.470
REMARK UNBOUND:                -1.286
REMARK  Name = 135405876
REMARK  11 active torsions:
REMARK  status: ('A' for Active; 'I' for Inactive)
REMARK    1  A    between atoms: O_1  and  C_19
REMARK    2  A    between atoms: OE1_4  and  CD_26
REMARK    3  A    between atoms: N_7  and  CA_14
REMARK    4  A    between atoms: N_8  and  C_20
REMARK    5  A    between atoms: N_8  and  C_21
REMARK    6  A    between atoms: CA_14  and  CB_15
REMARK    7  A    between atoms: CA_14  and  C_19
REMARK    8  A    between atoms: CB_15  and  CG_16
REMARK    9  A    between atoms: CG_16  and  CD_26
REMARK   10  A    between atoms: C_17  and  C_18
REMARK   11  A    between atoms: C_21  and  C_27
REMARK                            x       y       z     vdW  Elec       q    Type
REMARK                         _______ _______ _______ _____ _____    ______ ____
ROOT
ATOM      1  C   UNK A   0       5.356   8.762   4.527  0.00  0.00    +0.037 A 
ATOM      2  C   UNK A   0       5.700   6.102   5.295  0.00  0.00    +0.027 A 
ATOM      3  C   UNK A   0       6.612   8.310   4.933  0.00  0.00    +0.015 A 
ATOM      4  C   UNK A   0       4.272   7.884   4.505  0.00  0.00    +0.015 A 
ATOM      5  C   UNK A   0       6.784   6.981   5.317  0.00  0.00    +0.023 A 
ATOM      6  C   UNK A   0       4.445   6.554   4.888  0.00  0.00    +0.023 A 
ENDROOT
BRANCH   1   9
ATOM      7  O   UNK A   0       6.150  10.920   4.071  0.00  0.00    -0.270 OA
ATOM      8  N   GLU A   1       3.879  10.553   3.785  0.00  0.00    -0.298 N 
ATOM      9  C   UNK A   0       5.173  10.178   4.116  0.00  0.00    +0.245 C 
ATOM     10  H   GLU A   1       3.127   9.873   3.803  0.00  0.00    +0.150 HD
BRANCH   8  11
ATOM     11  CA  GLU A   1       3.546  11.885   3.344  0.00  0.00    +0.182 C 
BRANCH  11  13
ATOM     12  OXT GLU A   1       3.558  12.596   1.014  0.00  0.00    -0.249 OA
ATOM     13  C   GLU A   1       3.192  11.803   1.873  0.00  0.00    +0.325 C 
BRANCH  13  14
ATOM     14  O   GLU A   1       2.439  10.708   1.593  0.00  0.00    -0.479 OA
ATOM     15  H   GLU A   1       1.629  10.670   2.145  0.00  0.00    +0.295 HD
ENDBRANCH  13  14
ENDBRANCH  11  13
BRANCH  11  16
ATOM     16  CB  GLU A   1       2.463  12.546   4.204  0.00  0.00    +0.045 C 
BRANCH  16  17
ATOM     17  CG  GLU A   1       1.715  11.616   5.168  0.00  0.00    +0.123 C 
BRANCH  17  19
ATOM     18  OE2 GLU A   1      -0.707  11.515   4.921  0.00  0.00    -0.251 OA
ATOM     19  CD  GLU A   1       0.403  11.098   4.619  0.00  0.00    +0.305 C 
BRANCH  19  20
ATOM     20  OE1 GLU A   1       0.593  10.060   3.763  0.00  0.00    -0.481 OA
ATOM     21  HE1 GLU A   1       1.536   9.957   3.517  0.00  0.00    +0.295 HD
ENDBRANCH  19  20
ENDBRANCH  17  19
ENDBRANCH  16  17
ENDBRANCH  11  16
ENDBRANCH   8  11
ENDBRANCH   1   9
BRANCH   2  22
ATOM     22  N   UNK A   0       5.873   4.758   5.684  0.00  0.00    -0.338 N 
ATOM     23  H   UNK A   0       5.223   4.389   6.371  0.00  0.00    +0.146 HD
BRANCH  22  24
ATOM     24  C   UNK A   0       6.903   3.921   5.151  0.00  0.00    +0.158 C 
BRANCH  24  31
ATOM     25  O   UNK A   0       3.917   4.408   1.164  0.00  0.00    -0.265 OA
ATOM     26  N   UNK A   0       5.546   3.540   3.160  0.00  0.00    -0.240 NA
ATOM     27  N   UNK A   0       6.163   0.797   3.195  0.00  0.00    -0.232 NA
ATOM     28  N   UNK A   0       3.749   2.265   0.295  0.00  0.00    -0.293 N 
ATOM     29  N   UNK A   0       4.857   0.434   1.282  0.00  0.00    -0.195 NA
ATOM     30  N   UNK A   0       3.538   0.129  -0.633  0.00  0.00    -0.329 N 
ATOM     31  C   UNK A   0       6.343   3.000   4.101  0.00  0.00    +0.077 A 
ATOM     32  C   UNK A   0       5.070   2.674   2.244  0.00  0.00    +0.172 A 
ATOM     33  C   UNK A   0       6.646   1.655   4.119  0.00  0.00    +0.138 A 
ATOM     34  C   UNK A   0       5.362   1.323   2.245  0.00  0.00    +0.187 A 
ATOM     35  C   UNK A   0       4.197   3.217   1.198  0.00  0.00    +0.280 A 
ATOM     36  C   UNK A   0       4.080   0.914   0.350  0.00  0.00    +0.195 A 
ATOM     37  H   UNK A   0       3.140   2.577  -0.456  0.00  0.00    +0.172 HD
ATOM     38  H   UNK A   0       3.725  -0.867  -0.671  0.00  0.00    +0.145 HD
ATOM     39  H   UNK A   0       2.935   0.518  -1.350  0.00  0.00    +0.145 HD
ENDBRANCH  24  31
ENDBRANCH  22  24
ENDBRANCH   2  22
TORSDOF 11
ENDMDL
MODEL 10
REMARK VINA RESULT:    -8.446      3.219      9.705
REMARK INTER + INTRA:         -14.669
REMARK INTER:                 -13.328
REMARK INTRA:                  -1.341
REMARK UNBOUND:                -1.286
REMARK  Name = 135405876
REMARK  11 active torsions:
REMARK  status: ('A' for Active; 'I' for Inactive)
REMARK    1  A    between atoms: O_1  and  C_19
REMARK    2  A    between atoms: OE1_4  and  CD_26
REMARK    3  A    between atoms: N_7  and  CA_14
REMARK    4  A    between atoms: N_8  and  C_20
REMARK    5  A    between atoms: N_8  and  C_21
REMARK    6  A    between atoms: CA_14  and  CB_15
REMARK    7  A    between atoms: CA_14  and  C_19
REMARK    8  A    between atoms: CB_15  and  CG_16
REMARK    9  A    between atoms: CG_16  and  CD_26
REMARK   10  A    between atoms: C_17  and  C_18
REMARK   11  A    between atoms: C_21  and  C_27
REMARK                            x       y       z     vdW  Elec       q    Type
REMARK                         _______ _______ _______ _____ _____    ______ ____
ROOT
ATOM      1  C   UNK A   0       5.516   8.792   4.591  0.00  0.00    +0.037 A 
ATOM      2  C   UNK A   0       5.902   6.129   5.325  0.00  0.00    +0.027 A 
ATOM      3  C   UNK A   0       4.445   7.900   4.563  0.00  0.00    +0.015 A 
ATOM      4  C   UNK A   0       6.780   8.355   4.986  0.00  0.00    +0.015 A 
ATOM      5  C   UNK A   0       4.638   6.568   4.929  0.00  0.00    +0.023 A 
ATOM      6  C   UNK A   0       6.973   7.024   5.353  0.00  0.00    +0.023 A 
ENDROOT
BRANCH   1   9
ATOM      7  O   UNK A   0       6.268  10.979   4.203  0.00  0.00    -0.270 OA
ATOM      8  N   GLU A   1       4.017  10.562   3.837  0.00  0.00    -0.298 N 
ATOM      9  C   UNK A   0       5.309  10.212   4.202  0.00  0.00    +0.245 C 
ATOM     10  H   GLU A   1       3.282   9.863   3.818  0.00  0.00    +0.150 HD
BRANCH   8  11
ATOM     11  CA  GLU A   1       3.664  11.893   3.412  0.00  0.00    +0.182 C 
BRANCH  11  13
ATOM     12  OXT GLU A   1       3.752  12.608   1.085  0.00  0.00    -0.249 OA
ATOM     13  C   GLU A   1       3.337  11.829   1.934  0.00  0.00    +0.325 C 
BRANCH  13  14
ATOM     14  O   GLU A   1       2.545  10.766   1.636  0.00  0.00    -0.479 OA
ATOM     15  H   GLU A   1       1.709  10.778   2.149  0.00  0.00    +0.295 HD
ENDBRANCH  13  14
ENDBRANCH  11  13
BRANCH  11  16
ATOM     16  CB  GLU A   1       2.553  12.518   4.264  0.00  0.00    +0.045 C 
BRANCH  16  17
ATOM     17  CG  GLU A   1       1.799  11.554   5.189  0.00  0.00    +0.123 C 
BRANCH  17  19
ATOM     18  OE2 GLU A   1       0.622  10.031   3.696  0.00  0.00    -0.251 OA
ATOM     19  CD  GLU A   1       0.590  10.911   4.545  0.00  0.00    +0.305 C 
BRANCH  19  20
ATOM     20  OE1 GLU A   1      -0.569  11.462   4.992  0.00  0.00    -0.481 OA
ATOM     21  HE1 GLU A   1      -1.354  11.065   4.558  0.00  0.00    +0.295 HD
ENDBRANCH  19  20
ENDBRANCH  17  19
ENDBRANCH  16  17
ENDBRANCH  11  16
ENDBRANCH   8  11
ENDBRANCH   1   9
BRANCH   2  22
ATOM     22  N   UNK A   0       6.099   4.783   5.694  0.00  0.00    -0.338 N 
ATOM     23  H   UNK A   0       5.450   4.390   6.368  0.00  0.00    +0.146 HD
BRANCH  22  24
ATOM     24  C   UNK A   0       7.151   3.975   5.158  0.00  0.00    +0.158 C 
BRANCH  24  31
ATOM     25  O   UNK A   0       6.542  -0.986   4.896  0.00  0.00    -0.265 OA
ATOM     26  N   UNK A   0       6.618   1.698   4.466  0.00  0.00    -0.240 NA
ATOM     27  N   UNK A   0       5.620   2.620   2.004  0.00  0.00    -0.232 NA
ATOM     28  N   UNK A   0       5.586  -1.347   2.815  0.00  0.00    -0.293 N 
ATOM     29  N   UNK A   0       5.110   0.430   1.341  0.00  0.00    -0.195 NA
ATOM     30  N   UNK A   0       4.620  -1.781   0.729  0.00  0.00    -0.329 N 
ATOM     31  C   UNK A   0       6.606   3.006   4.145  0.00  0.00    +0.077 A 
ATOM     32  C   UNK A   0       6.120   0.871   3.525  0.00  0.00    +0.172 A 
ATOM     33  C   UNK A   0       6.117   3.459   2.938  0.00  0.00    +0.138 A 
ATOM     34  C   UNK A   0       5.625   1.305   2.310  0.00  0.00    +0.187 A 
ATOM     35  C   UNK A   0       6.113  -0.563   3.830  0.00  0.00    +0.280 A 
ATOM     36  C   UNK A   0       5.102  -0.848   1.609  0.00  0.00    +0.195 A 
ATOM     37  H   UNK A   0       5.551  -2.352   2.963  0.00  0.00    +0.172 HD
ATOM     38  H   UNK A   0       4.248  -1.508  -0.174  0.00  0.00    +0.145 HD
ATOM     39  H   UNK A   0       4.622  -2.770   0.953  0.00  0.00    +0.145 HD
ENDBRANCH  24  31
ENDBRANCH  22  24
ENDBRANCH   2  22
TORSDOF 11
ENDMDL
